Circuit: * C:\Users\user\Desktop\3phase_inverter_and_motor\MosfertVersion.asc

Fatal Error: Could not open file "clo.txt" in PWL

