Circuit: * C:\Users\user\Desktop\Models\3phase_inverter_and_motor\motor.asc

V4: Removing PWL point (1e-005,0)
V4: Removing PWL point (2e-005,0)
V4: Removing PWL point (3e-005,0)
V4: Removing PWL point (4e-005,0)
V4: Removing PWL point (5e-005,0)
V4: Removing PWL point (6e-005,0)
V4: Removing PWL point (7e-005,0)
V4: Removing PWL point (8e-005,0)
V4: Removing PWL point (9e-005,0)
V4: Removing PWL point (0.0001,0)
V4: Removing PWL point (0.00011,0)
V4: Removing PWL point (0.00012,0)
V4: Removing PWL point (0.00013,0)
V4: Removing PWL point (0.00014,0)
V4: Removing PWL point (0.00015,0)
V4: Removing PWL point (0.00016,0)
V4: Removing PWL point (0.00017,0)
V4: Removing PWL point (0.00018,0)
V4: Removing PWL point (0.00019,0)
V4: Removing PWL point (0.0002,0)
V4: Removing PWL point (0.00021,0)
V4: Removing PWL point (0.00022,0)
V4: Removing PWL point (0.00023,0)
V4: Removing PWL point (0.00024,0)
V4: Removing PWL point (0.00025,0)
V4: Removing PWL point (0.00026,0)
V4: Removing PWL point (0.00027,0)
V4: Removing PWL point (0.00028,0)
V4: Removing PWL point (0.00029,0)
V4: Removing PWL point (0.0003,0)
V4: Removing PWL point (0.00031,0)
V4: Removing PWL point (0.00032,0)
V4: Removing PWL point (0.00033,0)
V4: Removing PWL point (0.00034,0)
V4: Removing PWL point (0.00035,0)
V4: Removing PWL point (0.00036,0)
V4: Removing PWL point (0.00037,0)
V4: Removing PWL point (0.00038,0)
V4: Removing PWL point (0.00039,0)
V4: Removing PWL point (0.0004,0)
V4: Removing PWL point (0.00041,0)
V4: Removing PWL point (0.00042,0)
V4: Removing PWL point (0.00043,0)
V4: Removing PWL point (0.00044,0)
V4: Removing PWL point (0.00045,0)
V4: Removing PWL point (0.00046,0)
V4: Removing PWL point (0.00047,0)
V4: Removing PWL point (0.00048,0)
V4: Removing PWL point (0.00049,0)
V4: Removing PWL point (0.0005,0)
V4: Removing PWL point (0.00051,0)
V4: Removing PWL point (0.00052,0)
V4: Removing PWL point (0.00053,0)
V4: Removing PWL point (0.00054,0)
V4: Removing PWL point (0.00055,0)
V4: Removing PWL point (0.00056,0)
V4: Removing PWL point (0.00057,0)
V4: Removing PWL point (0.00058,0)
V4: Removing PWL point (0.00059,0)
V4: Removing PWL point (0.0006,0)
V4: Removing PWL point (0.00061,0)
V4: Removing PWL point (0.00062,0)
V4: Removing PWL point (0.00063,0)
V4: Removing PWL point (0.00064,0)
V4: Removing PWL point (0.00065,0)
V4: Removing PWL point (0.00066,0)
V4: Removing PWL point (0.00067,0)
V4: Removing PWL point (0.00068,0)
V4: Removing PWL point (0.00069,0)
V4: Removing PWL point (0.0007,0)
V4: Removing PWL point (0.00071,0)
V4: Removing PWL point (0.00072,0)
V4: Removing PWL point (0.00073,0)
V4: Removing PWL point (0.00074,0)
V4: Removing PWL point (0.00075,0)
V4: Removing PWL point (0.00076,0)
V4: Removing PWL point (0.00077,0)
V4: Removing PWL point (0.00078,0)
V4: Removing PWL point (0.00079,0)
V4: Removing PWL point (0.0008,0)
V4: Removing PWL point (0.00081,0)
V4: Removing PWL point (0.00082,0)
V4: Removing PWL point (0.00083,0)
V4: Removing PWL point (0.00084,0)
V4: Removing PWL point (0.00085,0)
V4: Removing PWL point (0.00086,0)
V4: Removing PWL point (0.00087,0)
V4: Removing PWL point (0.00088,0)
V4: Removing PWL point (0.00089,0)
V4: Removing PWL point (0.0009,0)
V4: Removing PWL point (0.00091,0)
V4: Removing PWL point (0.00092,0)
V4: Removing PWL point (0.00093,0)
V4: Removing PWL point (0.00094,0)
V4: Removing PWL point (0.00095,0)
V4: Removing PWL point (0.00096,0)
V4: Removing PWL point (0.00097,0)
V4: Removing PWL point (0.00098,0)
V4: Removing PWL point (0.00099,0)
V4: Removing PWL point (0.001,0)
V4: Removing PWL point (0.00101,0)
V4: Removing PWL point (0.00102,0)
V4: Removing PWL point (0.00103,0)
V4: Removing PWL point (0.00104,0)
V4: Removing PWL point (0.00105,0)
V4: Removing PWL point (0.00106,0)
V4: Removing PWL point (0.00107,0)
V4: Removing PWL point (0.00108,0)
V4: Removing PWL point (0.00109,0)
V4: Removing PWL point (0.0011,0)
V4: Removing PWL point (0.00111,0)
V4: Removing PWL point (0.00112,0)
V4: Removing PWL point (0.00113,0)
V4: Removing PWL point (0.00114,0)
V4: Removing PWL point (0.00115,0)
V4: Removing PWL point (0.00116,0)
V4: Removing PWL point (0.00117,0)
V4: Removing PWL point (0.00118,0)
V4: Removing PWL point (0.00119,0)
V4: Removing PWL point (0.0012,0)
V4: Removing PWL point (0.00121,0)
V4: Removing PWL point (0.00122,0)
V4: Removing PWL point (0.00123,0)
V4: Removing PWL point (0.00124,0)
V4: Removing PWL point (0.00125,0)
V4: Removing PWL point (0.00126,0)
V4: Removing PWL point (0.00127,0)
V4: Removing PWL point (0.00128,0)
V4: Removing PWL point (0.00129,0)
V4: Removing PWL point (0.0013,0)
V4: Removing PWL point (0.00131,0)
V4: Removing PWL point (0.00132,0)
V4: Removing PWL point (0.00133,0)
V4: Removing PWL point (0.00134,0)
V4: Removing PWL point (0.00135,0)
V4: Removing PWL point (0.00136,0)
V4: Removing PWL point (0.00137,0)
V4: Removing PWL point (0.00138,0)
V4: Removing PWL point (0.00139,0)
V4: Removing PWL point (0.0014,0)
V4: Removing PWL point (0.00141,0)
V4: Removing PWL point (0.00142,0)
V4: Removing PWL point (0.00143,0)
V4: Removing PWL point (0.00144,0)
V4: Removing PWL point (0.00145,0)
V4: Removing PWL point (0.00146,0)
V4: Removing PWL point (0.00147,0)
V4: Removing PWL point (0.00148,0)
V4: Removing PWL point (0.00149,0)
V4: Removing PWL point (0.0015,0)
V4: Removing PWL point (0.00151,0)
V4: Removing PWL point (0.00152,0)
V4: Removing PWL point (0.00153,0)
V4: Removing PWL point (0.00154,0)
V4: Removing PWL point (0.00155,0)
V4: Removing PWL point (0.00156,0)
V4: Removing PWL point (0.00157,0)
V4: Removing PWL point (0.00158,0)
V4: Removing PWL point (0.00159,0)
V4: Removing PWL point (0.0016,0)
V4: Removing PWL point (0.00161,0)
V4: Removing PWL point (0.00162,0)
V4: Removing PWL point (0.00163,0)
V4: Removing PWL point (0.00164,0)
V4: Removing PWL point (0.00165,0)
V4: Removing PWL point (0.00166,0)
V4: Removing PWL point (0.00167,0)
V4: Removing PWL point (0.00168,0)
V4: Removing PWL point (0.00169,0)
V4: Removing PWL point (0.0017,0)
V4: Removing PWL point (0.00171,0)
V4: Removing PWL point (0.00172,0)
V4: Removing PWL point (0.00173,0)
V4: Removing PWL point (0.00174,0)
V4: Removing PWL point (0.00175,0)
V4: Removing PWL point (0.00176,0)
V4: Removing PWL point (0.00177,0)
V4: Removing PWL point (0.00178,0)
V4: Removing PWL point (0.00179,0)
V4: Removing PWL point (0.0018,0)
V4: Removing PWL point (0.00181,0)
V4: Removing PWL point (0.00182,0)
V4: Removing PWL point (0.00183,0)
V4: Removing PWL point (0.00184,0)
V4: Removing PWL point (0.00185,0)
V4: Removing PWL point (0.00186,0)
V4: Removing PWL point (0.00187,0)
V4: Removing PWL point (0.00188,0)
V4: Removing PWL point (0.00189,0)
V4: Removing PWL point (0.0019,0)
V4: Removing PWL point (0.00191,0)
V4: Removing PWL point (0.00192,0)
V4: Removing PWL point (0.00193,0)
V4: Removing PWL point (0.00194,0)
V4: Removing PWL point (0.00195,0)
V4: Removing PWL point (0.00196,0)
V4: Removing PWL point (0.00197,0)
V4: Removing PWL point (0.00198,0)
V4: Removing PWL point (0.00199,0)
V4: Removing PWL point (0.002,0)
V4: Removing PWL point (0.00201,0)
V4: Removing PWL point (0.00202,0)
V4: Removing PWL point (0.00203,0)
V4: Removing PWL point (0.00204,0)
V4: Removing PWL point (0.00205,0)
V4: Removing PWL point (0.00206,0)
V4: Removing PWL point (0.00207,0)
V4: Removing PWL point (0.00208,0)
V4: Removing PWL point (0.00209,0)
V4: Removing PWL point (0.0021,0)
V4: Removing PWL point (0.00211,0)
V4: Removing PWL point (0.00212,0)
V4: Removing PWL point (0.00213,0)
V4: Removing PWL point (0.00214,0)
V4: Removing PWL point (0.00215,0)
V4: Removing PWL point (0.00216,0)
V4: Removing PWL point (0.00217,0)
V4: Removing PWL point (0.00218,0)
V4: Removing PWL point (0.00219,0)
V4: Removing PWL point (0.0022,0)
V4: Removing PWL point (0.00221,0)
V4: Removing PWL point (0.00222,0)
V4: Removing PWL point (0.00223,0)
V4: Removing PWL point (0.00224,0)
V4: Removing PWL point (0.00225,0)
V4: Removing PWL point (0.00226,0)
V4: Removing PWL point (0.00227,0)
V4: Removing PWL point (0.00228,0)
V4: Removing PWL point (0.00229,0)
V4: Removing PWL point (0.0023,0)
V4: Removing PWL point (0.00231,0)
V4: Removing PWL point (0.00232,0)
V4: Removing PWL point (0.00233,0)
V4: Removing PWL point (0.00234,0)
V4: Removing PWL point (0.00235,0)
V4: Removing PWL point (0.00236,0)
V4: Removing PWL point (0.00237,0)
V4: Removing PWL point (0.00238,0)
V4: Removing PWL point (0.00239,0)
V4: Removing PWL point (0.0024,0)
V4: Removing PWL point (0.00241,0)
V4: Removing PWL point (0.00242,0)
V4: Removing PWL point (0.00243,0)
V4: Removing PWL point (0.00244,0)
V4: Removing PWL point (0.00245,0)
V4: Removing PWL point (0.00246,0)
V4: Removing PWL point (0.00247,0)
V4: Removing PWL point (0.00248,0)
V4: Removing PWL point (0.00249,0)
V4: Removing PWL point (0.0025,0)
V4: Removing PWL point (0.00251,0)
V4: Removing PWL point (0.00252,0)
V4: Removing PWL point (0.00253,0)
V4: Removing PWL point (0.00254,0)
V4: Removing PWL point (0.00255,0)
V4: Removing PWL point (0.00256,0)
V4: Removing PWL point (0.00257,0)
V4: Removing PWL point (0.00258,0)
V4: Removing PWL point (0.00259,0)
V4: Removing PWL point (0.0026,0)
V4: Removing PWL point (0.00261,0)
V4: Removing PWL point (0.00262,0)
V4: Removing PWL point (0.00263,0)
V4: Removing PWL point (0.00264,0)
V4: Removing PWL point (0.00265,0)
V4: Removing PWL point (0.00266,0)
V4: Removing PWL point (0.00267,0)
V4: Removing PWL point (0.00268,0)
V4: Removing PWL point (0.00269,0)
V4: Removing PWL point (0.0027,0)
V4: Removing PWL point (0.00271,0)
V4: Removing PWL point (0.00272,0)
V4: Removing PWL point (0.00273,0)
V4: Removing PWL point (0.00274,0)
V4: Removing PWL point (0.00275,0)
V4: Removing PWL point (0.00276,0)
V4: Removing PWL point (0.00277,0)
V4: Removing PWL point (0.00278,0)
V4: Removing PWL point (0.00279,0)
V4: Removing PWL point (0.0028,0)
V4: Removing PWL point (0.00281,0)
V4: Removing PWL point (0.00282,0)
V4: Removing PWL point (0.00283,0)
V4: Removing PWL point (0.00284,0)
V4: Removing PWL point (0.00285,0)
V4: Removing PWL point (0.00286,0)
V4: Removing PWL point (0.00287,0)
V4: Removing PWL point (0.00288,0)
V4: Removing PWL point (0.00289,0)
V4: Removing PWL point (0.0029,0)
V4: Removing PWL point (0.00291,0)
V4: Removing PWL point (0.00292,0)
V4: Removing PWL point (0.00293,0)
V4: Removing PWL point (0.00294,0)
V4: Removing PWL point (0.00295,0)
V4: Removing PWL point (0.00296,0)
V4: Removing PWL point (0.00297,0)
V4: Removing PWL point (0.00298,0)
V4: Removing PWL point (0.00299,0)
V4: Removing PWL point (0.003,0)
V4: Removing PWL point (0.00301,0)
V4: Removing PWL point (0.00302,0)
V4: Removing PWL point (0.00303,0)
V4: Removing PWL point (0.00304,0)
V4: Removing PWL point (0.00305,0)
V4: Removing PWL point (0.00306,0)
V4: Removing PWL point (0.00307,0)
V4: Removing PWL point (0.00308,0)
V4: Removing PWL point (0.00309,0)
V4: Removing PWL point (0.0031,0)
V4: Removing PWL point (0.00311,0)
V4: Removing PWL point (0.00312,0)
V4: Removing PWL point (0.00313,0)
V4: Removing PWL point (0.00314,0)
V4: Removing PWL point (0.00315,0)
V4: Removing PWL point (0.00316,0)
V4: Removing PWL point (0.00317,0)
V4: Removing PWL point (0.00318,0)
V4: Removing PWL point (0.00319,0)
V4: Removing PWL point (0.0032,0)
V4: Removing PWL point (0.00321,0)
V4: Removing PWL point (0.00322,0)
V4: Removing PWL point (0.00323,0)
V4: Removing PWL point (0.00324,0)
V4: Removing PWL point (0.00325,0)
V4: Removing PWL point (0.00326,0)
V4: Removing PWL point (0.00327,0)
V4: Removing PWL point (0.00328,0)
V4: Removing PWL point (0.00329,0)
V4: Removing PWL point (0.0033,0)
V4: Removing PWL point (0.00331,0)
V4: Removing PWL point (0.00332,0)
V4: Removing PWL point (0.00333,0)
V4: Removing PWL point (0.00334,0)
V4: Removing PWL point (0.00335,0)
V4: Removing PWL point (0.00336,0)
V4: Removing PWL point (0.00337,0)
V4: Removing PWL point (0.00338,0)
V4: Removing PWL point (0.00339,0)
V4: Removing PWL point (0.0034,0)
V4: Removing PWL point (0.00341,0)
V4: Removing PWL point (0.00342,0)
V4: Removing PWL point (0.00343,0)
V4: Removing PWL point (0.00344,0)
V4: Removing PWL point (0.00345,0)
V4: Removing PWL point (0.00346,0)
V4: Removing PWL point (0.00347,0)
V4: Removing PWL point (0.00348,0)
V4: Removing PWL point (0.00349,0)
V4: Removing PWL point (0.0035,0)
V4: Removing PWL point (0.00351,0)
V4: Removing PWL point (0.00352,0)
V4: Removing PWL point (0.00353,0)
V4: Removing PWL point (0.00354,0)
V4: Removing PWL point (0.00355,0)
V4: Removing PWL point (0.00356,0)
V4: Removing PWL point (0.00357,0)
V4: Removing PWL point (0.00358,0)
V4: Removing PWL point (0.00359,0)
V4: Removing PWL point (0.0036,0)
V4: Removing PWL point (0.00361,0)
V4: Removing PWL point (0.00362,0)
V4: Removing PWL point (0.00363,0)
V4: Removing PWL point (0.00364,0)
V4: Removing PWL point (0.00365,0)
V4: Removing PWL point (0.00366,0)
V4: Removing PWL point (0.00367,0)
V4: Removing PWL point (0.00368,0)
V4: Removing PWL point (0.00369,0)
V4: Removing PWL point (0.0037,0)
V4: Removing PWL point (0.00371,0)
V4: Removing PWL point (0.00372,0)
V4: Removing PWL point (0.00373,0)
V4: Removing PWL point (0.00374,0)
V4: Removing PWL point (0.00375,0)
V4: Removing PWL point (0.00376,0)
V4: Removing PWL point (0.00377,0)
V4: Removing PWL point (0.00378,0)
V4: Removing PWL point (0.00379,0)
V4: Removing PWL point (0.0038,0)
V4: Removing PWL point (0.00381,0)
V4: Removing PWL point (0.00382,0)
V4: Removing PWL point (0.00383,0)
V4: Removing PWL point (0.00384,0)
V4: Removing PWL point (0.00385,0)
V4: Removing PWL point (0.00386,0)
V4: Removing PWL point (0.00387,0)
V4: Removing PWL point (0.00388,0)
V4: Removing PWL point (0.00389,0)
V4: Removing PWL point (0.0039,0)
V4: Removing PWL point (0.00391,0)
V4: Removing PWL point (0.00392,0)
V4: Removing PWL point (0.00393,0)
V4: Removing PWL point (0.00394,0)
V4: Removing PWL point (0.00395,0)
V4: Removing PWL point (0.00396,0)
V4: Removing PWL point (0.00397,0)
V4: Removing PWL point (0.00398,0)
V4: Removing PWL point (0.00399,0)
V4: Removing PWL point (0.004,0)
V4: Removing PWL point (0.00401,0)
V4: Removing PWL point (0.00402,0)
V4: Removing PWL point (0.00403,0)
V4: Removing PWL point (0.00404,0)
V4: Removing PWL point (0.00405,0)
V4: Removing PWL point (0.00406,0)
V4: Removing PWL point (0.00407,0)
V4: Removing PWL point (0.00408,0)
V4: Removing PWL point (0.00409,0)
V4: Removing PWL point (0.0041,0)
V4: Removing PWL point (0.00411,0)
V4: Removing PWL point (0.00412,0)
V4: Removing PWL point (0.00413,0)
V4: Removing PWL point (0.00414,0)
V4: Removing PWL point (0.00415,0)
V4: Removing PWL point (0.00416,0)
V4: Removing PWL point (0.00417,0)
V4: Removing PWL point (0.00418,0)
V4: Removing PWL point (0.00419,0)
V4: Removing PWL point (0.0042,0)
V4: Removing PWL point (0.00421,0)
V4: Removing PWL point (0.00422,0)
V4: Removing PWL point (0.00423,0)
V4: Removing PWL point (0.00424,0)
V4: Removing PWL point (0.00425,0)
V4: Removing PWL point (0.00426,0)
V4: Removing PWL point (0.00427,0)
V4: Removing PWL point (0.00428,0)
V4: Removing PWL point (0.00429,0)
V4: Removing PWL point (0.0043,0)
V4: Removing PWL point (0.00431,0)
V4: Removing PWL point (0.00432,0)
V4: Removing PWL point (0.00433,0)
V4: Removing PWL point (0.00434,0)
V4: Removing PWL point (0.00435,0)
V4: Removing PWL point (0.00436,0)
V4: Removing PWL point (0.00437,0)
V4: Removing PWL point (0.00438,0)
V4: Removing PWL point (0.00439,0)
V4: Removing PWL point (0.0044,0)
V4: Removing PWL point (0.00441,0)
V4: Removing PWL point (0.00442,0)
V4: Removing PWL point (0.00443,0)
V4: Removing PWL point (0.00444,0)
V4: Removing PWL point (0.00445,0)
V4: Removing PWL point (0.00446,0)
V4: Removing PWL point (0.00447,0)
V4: Removing PWL point (0.00448,0)
V4: Removing PWL point (0.00449,0)
V4: Removing PWL point (0.0045,0)
V4: Removing PWL point (0.00451,0)
V4: Removing PWL point (0.00452,0)
V4: Removing PWL point (0.00453,0)
V4: Removing PWL point (0.00454,0)
V4: Removing PWL point (0.00455,0)
V4: Removing PWL point (0.00456,0)
V4: Removing PWL point (0.00457,0)
V4: Removing PWL point (0.00458,0)
V4: Removing PWL point (0.00459,0)
V4: Removing PWL point (0.0046,0)
V4: Removing PWL point (0.00461,0)
V4: Removing PWL point (0.00462,0)
V4: Removing PWL point (0.00463,0)
V4: Removing PWL point (0.00464,0)
V4: Removing PWL point (0.00465,0)
V4: Removing PWL point (0.00466,0)
V4: Removing PWL point (0.00467,0)
V4: Removing PWL point (0.00468,0)
V4: Removing PWL point (0.00469,0)
V4: Removing PWL point (0.0047,0)
V4: Removing PWL point (0.00471,0)
V4: Removing PWL point (0.00472,0)
V4: Removing PWL point (0.00473,0)
V4: Removing PWL point (0.00474,0)
V4: Removing PWL point (0.00475,0)
V4: Removing PWL point (0.00476,0)
V4: Removing PWL point (0.00477,0)
V4: Removing PWL point (0.00478,0)
V4: Removing PWL point (0.00479,0)
V4: Removing PWL point (0.0048,0)
V4: Removing PWL point (0.00481,0)
V4: Removing PWL point (0.00482,0)
V4: Removing PWL point (0.00483,0)
V4: Removing PWL point (0.00484,0)
V4: Removing PWL point (0.00485,0)
V4: Removing PWL point (0.00486,0)
V4: Removing PWL point (0.00487,0)
V4: Removing PWL point (0.00488,0)
V4: Removing PWL point (0.00489,0)
V4: Removing PWL point (0.0049,0)
V4: Removing PWL point (0.00491,0)
V4: Removing PWL point (0.00492,0)
V4: Removing PWL point (0.00493,0)
V4: Removing PWL point (0.00494,0)
V4: Removing PWL point (0.00495,0)
V4: Removing PWL point (0.00496,0)
V4: Removing PWL point (0.00497,0)
V4: Removing PWL point (0.00498,0)
V4: Removing PWL point (0.00499,0)
V4: Removing PWL point (0.005,0)
V4: Removing PWL point (0.00501,0)
V4: Removing PWL point (0.00502,0)
V4: Removing PWL point (0.00503,0)
V4: Removing PWL point (0.00504,0)
V4: Removing PWL point (0.00505,0)
V4: Removing PWL point (0.00506,0)
V4: Removing PWL point (0.00507,0)
V4: Removing PWL point (0.00508,0)
V4: Removing PWL point (0.00509,0)
V4: Removing PWL point (0.0051,0)
V4: Removing PWL point (0.00511,0)
V4: Removing PWL point (0.00512,0)
V4: Removing PWL point (0.00513,0)
V4: Removing PWL point (0.00514,0)
V4: Removing PWL point (0.00515,0)
V4: Removing PWL point (0.00516,0)
V4: Removing PWL point (0.00517,0)
V4: Removing PWL point (0.00518,0)
V4: Removing PWL point (0.00519,0)
V4: Removing PWL point (0.0052,0)
V4: Removing PWL point (0.00521,0)
V4: Removing PWL point (0.00522,0)
V4: Removing PWL point (0.00523,0)
V4: Removing PWL point (0.00524,0)
V4: Removing PWL point (0.00525,0)
V4: Removing PWL point (0.00526,0)
V4: Removing PWL point (0.00527,0)
V4: Removing PWL point (0.00528,0)
V4: Removing PWL point (0.00529,0)
V4: Removing PWL point (0.0053,0)
V4: Removing PWL point (0.00531,0)
V4: Removing PWL point (0.00532,0)
V4: Removing PWL point (0.00533,0)
V4: Removing PWL point (0.00534,0)
V4: Removing PWL point (0.00535,0)
V4: Removing PWL point (0.00536,0)
V4: Removing PWL point (0.00537,0)
V4: Removing PWL point (0.00538,0)
V4: Removing PWL point (0.00539,0)
V4: Removing PWL point (0.0054,0)
V4: Removing PWL point (0.00541,0)
V4: Removing PWL point (0.00542,0)
V4: Removing PWL point (0.00543,0)
V4: Removing PWL point (0.00544,0)
V4: Removing PWL point (0.00545,0)
V4: Removing PWL point (0.00546,0)
V4: Removing PWL point (0.00547,0)
V4: Removing PWL point (0.00548,0)
V4: Removing PWL point (0.00549,0)
V4: Removing PWL point (0.0055,0)
V4: Removing PWL point (0.00551,0)
V4: Removing PWL point (0.00552,0)
V4: Removing PWL point (0.00553,0)
V4: Removing PWL point (0.00554,0)
V4: Removing PWL point (0.00555,0)
V4: Removing PWL point (0.00556,0)
V4: Removing PWL point (0.00557,0)
V4: Removing PWL point (0.00558,0)
V4: Removing PWL point (0.00559,0)
V4: Removing PWL point (0.0056,0)
V4: Removing PWL point (0.00561,0)
V4: Removing PWL point (0.00562,0)
V4: Removing PWL point (0.00563,0)
V4: Removing PWL point (0.00564,0)
V4: Removing PWL point (0.00565,0)
V4: Removing PWL point (0.00566,0)
V4: Removing PWL point (0.00567,0)
V4: Removing PWL point (0.00568,0)
V4: Removing PWL point (0.00569,0)
V4: Removing PWL point (0.0057,0)
V4: Removing PWL point (0.00571,0)
V4: Removing PWL point (0.00572,0)
V4: Removing PWL point (0.00573,0)
V4: Removing PWL point (0.00574,0)
V4: Removing PWL point (0.00575,0)
V4: Removing PWL point (0.00576,0)
V4: Removing PWL point (0.00577,0)
V4: Removing PWL point (0.00578,0)
V4: Removing PWL point (0.00579,0)
V4: Removing PWL point (0.0058,0)
V4: Removing PWL point (0.00581,0)
V4: Removing PWL point (0.00582,0)
V4: Removing PWL point (0.00583,0)
V4: Removing PWL point (0.00584,0)
V4: Removing PWL point (0.00585,0)
V4: Removing PWL point (0.00586,0)
V4: Removing PWL point (0.00587,0)
V4: Removing PWL point (0.00588,0)
V4: Removing PWL point (0.00589,0)
V4: Removing PWL point (0.0059,0)
V4: Removing PWL point (0.00591,0)
V4: Removing PWL point (0.00592,0)
V4: Removing PWL point (0.00593,0)
V4: Removing PWL point (0.00594,0)
V4: Removing PWL point (0.00595,0)
V4: Removing PWL point (0.00596,0)
V4: Removing PWL point (0.00597,0)
V4: Removing PWL point (0.00598,0)
V4: Removing PWL point (0.00599,0)
V4: Removing PWL point (0.006,0)
V4: Removing PWL point (0.00601,0)
V4: Removing PWL point (0.00602,0)
V4: Removing PWL point (0.00603,0)
V4: Removing PWL point (0.00604,0)
V4: Removing PWL point (0.00605,0)
V4: Removing PWL point (0.00606,0)
V4: Removing PWL point (0.00607,0)
V4: Removing PWL point (0.00608,0)
V4: Removing PWL point (0.00609,0)
V4: Removing PWL point (0.0061,0)
V4: Removing PWL point (0.00611,0)
V4: Removing PWL point (0.00612,0)
V4: Removing PWL point (0.00613,0)
V4: Removing PWL point (0.00614,0)
V4: Removing PWL point (0.00615,0)
V4: Removing PWL point (0.00616,0)
V4: Removing PWL point (0.00617,0)
V4: Removing PWL point (0.00618,0)
V4: Removing PWL point (0.00619,0)
V4: Removing PWL point (0.0062,0)
V4: Removing PWL point (0.00621,0)
V4: Removing PWL point (0.00622,0)
V4: Removing PWL point (0.00623,0)
V4: Removing PWL point (0.00624,0)
V4: Removing PWL point (0.00625,0)
V4: Removing PWL point (0.00626,0)
V4: Removing PWL point (0.00627,0)
V4: Removing PWL point (0.00628,0)
V4: Removing PWL point (0.00629,0)
V4: Removing PWL point (0.0063,0)
V4: Removing PWL point (0.00631,0)
V4: Removing PWL point (0.00632,0)
V4: Removing PWL point (0.00633,0)
V4: Removing PWL point (0.00634,0)
V4: Removing PWL point (0.00635,0)
V4: Removing PWL point (0.00636,0)
V4: Removing PWL point (0.00637,0)
V4: Removing PWL point (0.00638,0)
V4: Removing PWL point (0.00639,0)
V4: Removing PWL point (0.0064,0)
V4: Removing PWL point (0.00641,0)
V4: Removing PWL point (0.00642,0)
V4: Removing PWL point (0.00643,0)
V4: Removing PWL point (0.00644,0)
V4: Removing PWL point (0.00645,0)
V4: Removing PWL point (0.00646,0)
V4: Removing PWL point (0.00647,0)
V4: Removing PWL point (0.00648,0)
V4: Removing PWL point (0.00649,0)
V4: Removing PWL point (0.0065,0)
V4: Removing PWL point (0.00651,0)
V4: Removing PWL point (0.00652,0)
V4: Removing PWL point (0.00653,0)
V4: Removing PWL point (0.00654,0)
V4: Removing PWL point (0.00655,0)
V4: Removing PWL point (0.00656,0)
V4: Removing PWL point (0.00657,0)
V4: Removing PWL point (0.00658,0)
V4: Removing PWL point (0.00659,0)
V4: Removing PWL point (0.0066,0)
V4: Removing PWL point (0.00661,0)
V4: Removing PWL point (0.00662,0)
V4: Removing PWL point (0.00663,0)
V4: Removing PWL point (0.00664,0)
V4: Removing PWL point (0.00665,0)
V3: Removing PWL point (1e-005,15)
V3: Removing PWL point (2e-005,15)
V3: Removing PWL point (3e-005,15)
V3: Removing PWL point (4e-005,15)
V3: Removing PWL point (5e-005,15)
V3: Removing PWL point (6e-005,15)
V3: Removing PWL point (7e-005,15)
V3: Removing PWL point (8e-005,15)
V3: Removing PWL point (9e-005,15)
V3: Removing PWL point (0.0001,15)
V3: Removing PWL point (0.00011,15)
V3: Removing PWL point (0.00012,15)
V3: Removing PWL point (0.00013,15)
V3: Removing PWL point (0.00014,15)
V3: Removing PWL point (0.00015,15)
V3: Removing PWL point (0.00016,15)
V3: Removing PWL point (0.00017,15)
V3: Removing PWL point (0.00018,15)
V3: Removing PWL point (0.00019,15)
V3: Removing PWL point (0.0002,15)
V3: Removing PWL point (0.00021,15)
V3: Removing PWL point (0.00022,15)
V3: Removing PWL point (0.00023,15)
V3: Removing PWL point (0.00024,15)
V3: Removing PWL point (0.00025,15)
V3: Removing PWL point (0.00026,15)
V3: Removing PWL point (0.00027,15)
V3: Removing PWL point (0.00028,15)
V3: Removing PWL point (0.00029,15)
V3: Removing PWL point (0.0003,15)
V3: Removing PWL point (0.00031,15)
V3: Removing PWL point (0.00032,15)
V3: Removing PWL point (0.00033,15)
V3: Removing PWL point (0.00034,15)
V3: Removing PWL point (0.00035,15)
V3: Removing PWL point (0.00036,15)
V3: Removing PWL point (0.00037,15)
V3: Removing PWL point (0.00038,15)
V3: Removing PWL point (0.00039,15)
V3: Removing PWL point (0.0004,15)
V3: Removing PWL point (0.00041,15)
V3: Removing PWL point (0.00042,15)
V3: Removing PWL point (0.00043,15)
V3: Removing PWL point (0.00044,15)
V3: Removing PWL point (0.00045,15)
V3: Removing PWL point (0.00046,15)
V3: Removing PWL point (0.00047,15)
V3: Removing PWL point (0.00048,15)
V3: Removing PWL point (0.00049,15)
V3: Removing PWL point (0.0005,15)
V3: Removing PWL point (0.00051,15)
V3: Removing PWL point (0.00052,15)
V3: Removing PWL point (0.00053,15)
V3: Removing PWL point (0.00054,15)
V3: Removing PWL point (0.00055,15)
V3: Removing PWL point (0.00056,15)
V3: Removing PWL point (0.00057,15)
V3: Removing PWL point (0.00058,15)
V3: Removing PWL point (0.00059,15)
V3: Removing PWL point (0.0006,15)
V3: Removing PWL point (0.00061,15)
V3: Removing PWL point (0.00062,15)
V3: Removing PWL point (0.00063,15)
V3: Removing PWL point (0.00064,15)
V3: Removing PWL point (0.00065,15)
V3: Removing PWL point (0.00066,15)
V3: Removing PWL point (0.00067,15)
V3: Removing PWL point (0.00068,15)
V3: Removing PWL point (0.00069,15)
V3: Removing PWL point (0.0007,15)
V3: Removing PWL point (0.00071,15)
V3: Removing PWL point (0.00072,15)
V3: Removing PWL point (0.00073,15)
V3: Removing PWL point (0.00074,15)
V3: Removing PWL point (0.00075,15)
V3: Removing PWL point (0.00076,15)
V3: Removing PWL point (0.00077,15)
V3: Removing PWL point (0.00078,15)
V3: Removing PWL point (0.00079,15)
V3: Removing PWL point (0.0008,15)
V3: Removing PWL point (0.00081,15)
V3: Removing PWL point (0.00082,15)
V3: Removing PWL point (0.00083,15)
V3: Removing PWL point (0.00084,15)
V3: Removing PWL point (0.00085,15)
V3: Removing PWL point (0.00086,15)
V3: Removing PWL point (0.00087,15)
V3: Removing PWL point (0.00088,15)
V3: Removing PWL point (0.00089,15)
V3: Removing PWL point (0.0009,15)
V3: Removing PWL point (0.00091,15)
V3: Removing PWL point (0.00092,15)
V3: Removing PWL point (0.00093,15)
V3: Removing PWL point (0.00094,15)
V3: Removing PWL point (0.00095,15)
V3: Removing PWL point (0.00096,15)
V3: Removing PWL point (0.00097,15)
V3: Removing PWL point (0.00098,15)
V3: Removing PWL point (0.00099,15)
V3: Removing PWL point (0.001,15)
V3: Removing PWL point (0.00101,15)
V3: Removing PWL point (0.00102,15)
V3: Removing PWL point (0.00103,15)
V3: Removing PWL point (0.00104,15)
V3: Removing PWL point (0.00105,15)
V3: Removing PWL point (0.00106,15)
V3: Removing PWL point (0.00107,15)
V3: Removing PWL point (0.00108,15)
V3: Removing PWL point (0.00109,15)
V3: Removing PWL point (0.0011,15)
V3: Removing PWL point (0.00111,15)
V3: Removing PWL point (0.00112,15)
V3: Removing PWL point (0.00113,15)
V3: Removing PWL point (0.00114,15)
V3: Removing PWL point (0.00115,15)
V3: Removing PWL point (0.00116,15)
V3: Removing PWL point (0.00117,15)
V3: Removing PWL point (0.00118,15)
V3: Removing PWL point (0.00119,15)
V3: Removing PWL point (0.0012,15)
V3: Removing PWL point (0.00121,15)
V3: Removing PWL point (0.00122,15)
V3: Removing PWL point (0.00123,15)
V3: Removing PWL point (0.00124,15)
V3: Removing PWL point (0.00125,15)
V3: Removing PWL point (0.00126,15)
V3: Removing PWL point (0.00127,15)
V3: Removing PWL point (0.00128,15)
V3: Removing PWL point (0.00129,15)
V3: Removing PWL point (0.0013,15)
V3: Removing PWL point (0.00131,15)
V3: Removing PWL point (0.00132,15)
V3: Removing PWL point (0.00133,15)
V3: Removing PWL point (0.00134,15)
V3: Removing PWL point (0.00135,15)
V3: Removing PWL point (0.00136,15)
V3: Removing PWL point (0.00137,15)
V3: Removing PWL point (0.00138,15)
V3: Removing PWL point (0.00139,15)
V3: Removing PWL point (0.0014,15)
V3: Removing PWL point (0.00141,15)
V3: Removing PWL point (0.00142,15)
V3: Removing PWL point (0.00143,15)
V3: Removing PWL point (0.00144,15)
V3: Removing PWL point (0.00145,15)
V3: Removing PWL point (0.00146,15)
V3: Removing PWL point (0.00147,15)
V3: Removing PWL point (0.00148,15)
V3: Removing PWL point (0.00149,15)
V3: Removing PWL point (0.0015,15)
V3: Removing PWL point (0.00151,15)
V3: Removing PWL point (0.00152,15)
V3: Removing PWL point (0.00153,15)
V3: Removing PWL point (0.00154,15)
V3: Removing PWL point (0.00155,15)
V3: Removing PWL point (0.00156,15)
V3: Removing PWL point (0.00157,15)
V3: Removing PWL point (0.00158,15)
V3: Removing PWL point (0.00159,15)
V3: Removing PWL point (0.0016,15)
V3: Removing PWL point (0.00161,15)
V3: Removing PWL point (0.00162,15)
V3: Removing PWL point (0.00163,15)
V3: Removing PWL point (0.00164,15)
V3: Removing PWL point (0.00165,15)
V3: Removing PWL point (0.00166,15)
V3: Removing PWL point (0.00167,15)
V3: Removing PWL point (0.00168,15)
V3: Removing PWL point (0.00169,15)
V3: Removing PWL point (0.0017,15)
V3: Removing PWL point (0.00171,15)
V3: Removing PWL point (0.00172,15)
V3: Removing PWL point (0.00173,15)
V3: Removing PWL point (0.00174,15)
V3: Removing PWL point (0.00175,15)
V3: Removing PWL point (0.00176,15)
V3: Removing PWL point (0.00177,15)
V3: Removing PWL point (0.00178,15)
V3: Removing PWL point (0.00179,15)
V3: Removing PWL point (0.0018,15)
V3: Removing PWL point (0.00181,15)
V3: Removing PWL point (0.00182,15)
V3: Removing PWL point (0.00183,15)
V3: Removing PWL point (0.00184,15)
V3: Removing PWL point (0.00185,15)
V3: Removing PWL point (0.00186,15)
V3: Removing PWL point (0.00187,15)
V3: Removing PWL point (0.00188,15)
V3: Removing PWL point (0.00189,15)
V3: Removing PWL point (0.0019,15)
V3: Removing PWL point (0.00191,15)
V3: Removing PWL point (0.00192,15)
V3: Removing PWL point (0.00193,15)
V3: Removing PWL point (0.00194,15)
V3: Removing PWL point (0.00195,15)
V3: Removing PWL point (0.00196,15)
V3: Removing PWL point (0.00197,15)
V3: Removing PWL point (0.00198,15)
V3: Removing PWL point (0.00199,15)
V3: Removing PWL point (0.002,15)
V3: Removing PWL point (0.00201,15)
V3: Removing PWL point (0.00202,15)
V3: Removing PWL point (0.00203,15)
V3: Removing PWL point (0.00204,15)
V3: Removing PWL point (0.00205,15)
V3: Removing PWL point (0.00206,15)
V3: Removing PWL point (0.00207,15)
V3: Removing PWL point (0.00208,15)
V3: Removing PWL point (0.00209,15)
V3: Removing PWL point (0.0021,15)
V3: Removing PWL point (0.00211,15)
V3: Removing PWL point (0.00212,15)
V3: Removing PWL point (0.00213,15)
V3: Removing PWL point (0.00214,15)
V3: Removing PWL point (0.00215,15)
V3: Removing PWL point (0.00216,15)
V3: Removing PWL point (0.00217,15)
V3: Removing PWL point (0.00218,15)
V3: Removing PWL point (0.00219,15)
V3: Removing PWL point (0.0022,15)
V3: Removing PWL point (0.00221,15)
V3: Removing PWL point (0.00222,15)
V3: Removing PWL point (0.00223,15)
V3: Removing PWL point (0.00224,15)
V3: Removing PWL point (0.00225,15)
V3: Removing PWL point (0.00226,15)
V3: Removing PWL point (0.00227,15)
V3: Removing PWL point (0.00228,15)
V3: Removing PWL point (0.00229,15)
V3: Removing PWL point (0.0023,15)
V3: Removing PWL point (0.00231,15)
V3: Removing PWL point (0.00232,15)
V3: Removing PWL point (0.00233,15)
V3: Removing PWL point (0.00234,15)
V3: Removing PWL point (0.00235,15)
V3: Removing PWL point (0.00236,15)
V3: Removing PWL point (0.00237,15)
V3: Removing PWL point (0.00238,15)
V3: Removing PWL point (0.00239,15)
V3: Removing PWL point (0.0024,15)
V3: Removing PWL point (0.00241,15)
V3: Removing PWL point (0.00242,15)
V3: Removing PWL point (0.00243,15)
V3: Removing PWL point (0.00244,15)
V3: Removing PWL point (0.00245,15)
V3: Removing PWL point (0.00246,15)
V3: Removing PWL point (0.00247,15)
V3: Removing PWL point (0.00248,15)
V3: Removing PWL point (0.00249,15)
V3: Removing PWL point (0.0025,15)
V3: Removing PWL point (0.00251,15)
V3: Removing PWL point (0.00252,15)
V3: Removing PWL point (0.00253,15)
V3: Removing PWL point (0.00254,15)
V3: Removing PWL point (0.00255,15)
V3: Removing PWL point (0.00256,15)
V3: Removing PWL point (0.00257,15)
V3: Removing PWL point (0.00258,15)
V3: Removing PWL point (0.00259,15)
V3: Removing PWL point (0.0026,15)
V3: Removing PWL point (0.00261,15)
V3: Removing PWL point (0.00262,15)
V3: Removing PWL point (0.00263,15)
V3: Removing PWL point (0.00264,15)
V3: Removing PWL point (0.00265,15)
V3: Removing PWL point (0.00266,15)
V3: Removing PWL point (0.00267,15)
V3: Removing PWL point (0.00268,15)
V3: Removing PWL point (0.00269,15)
V3: Removing PWL point (0.0027,15)
V3: Removing PWL point (0.00271,15)
V3: Removing PWL point (0.00272,15)
V3: Removing PWL point (0.00273,15)
V3: Removing PWL point (0.00274,15)
V3: Removing PWL point (0.00275,15)
V3: Removing PWL point (0.00276,15)
V3: Removing PWL point (0.00277,15)
V3: Removing PWL point (0.00278,15)
V3: Removing PWL point (0.00279,15)
V3: Removing PWL point (0.0028,15)
V3: Removing PWL point (0.00281,15)
V3: Removing PWL point (0.00282,15)
V3: Removing PWL point (0.00283,15)
V3: Removing PWL point (0.00284,15)
V3: Removing PWL point (0.00285,15)
V3: Removing PWL point (0.00286,15)
V3: Removing PWL point (0.00287,15)
V3: Removing PWL point (0.00288,15)
V3: Removing PWL point (0.00289,15)
V3: Removing PWL point (0.0029,15)
V3: Removing PWL point (0.00291,15)
V3: Removing PWL point (0.00292,15)
V3: Removing PWL point (0.00293,15)
V3: Removing PWL point (0.00294,15)
V3: Removing PWL point (0.00295,15)
V3: Removing PWL point (0.00296,15)
V3: Removing PWL point (0.00297,15)
V3: Removing PWL point (0.00298,15)
V3: Removing PWL point (0.00299,15)
V3: Removing PWL point (0.003,15)
V3: Removing PWL point (0.00301,15)
V3: Removing PWL point (0.00302,15)
V3: Removing PWL point (0.00303,15)
V3: Removing PWL point (0.00304,15)
V3: Removing PWL point (0.00305,15)
V3: Removing PWL point (0.00306,15)
V3: Removing PWL point (0.00307,15)
V3: Removing PWL point (0.00308,15)
V3: Removing PWL point (0.00309,15)
V3: Removing PWL point (0.0031,15)
V3: Removing PWL point (0.00311,15)
V3: Removing PWL point (0.00312,15)
V3: Removing PWL point (0.00313,15)
V3: Removing PWL point (0.00314,15)
V3: Removing PWL point (0.00315,15)
V3: Removing PWL point (0.00316,15)
V3: Removing PWL point (0.00317,15)
V3: Removing PWL point (0.00318,15)
V3: Removing PWL point (0.00319,15)
V3: Removing PWL point (0.0032,15)
V3: Removing PWL point (0.00321,15)
V3: Removing PWL point (0.00322,15)
V3: Removing PWL point (0.00323,15)
V3: Removing PWL point (0.00324,15)
V3: Removing PWL point (0.00325,15)
V3: Removing PWL point (0.00326,15)
V3: Removing PWL point (0.00327,15)
V3: Removing PWL point (0.00328,15)
V3: Removing PWL point (0.00329,15)
V3: Removing PWL point (0.0033,15)
V3: Removing PWL point (0.00331,15)
V3: Removing PWL point (0.00332,15)
V3: Removing PWL point (0.00333,15)
V3: Removing PWL point (0.00334,15)
V3: Removing PWL point (0.00335,15)
V3: Removing PWL point (0.00336,15)
V3: Removing PWL point (0.00337,15)
V3: Removing PWL point (0.00338,15)
V3: Removing PWL point (0.00339,15)
V3: Removing PWL point (0.0034,15)
V3: Removing PWL point (0.00341,15)
V3: Removing PWL point (0.00342,15)
V3: Removing PWL point (0.00343,15)
V3: Removing PWL point (0.00344,15)
V3: Removing PWL point (0.00345,15)
V3: Removing PWL point (0.00346,15)
V3: Removing PWL point (0.00347,15)
V3: Removing PWL point (0.00348,15)
V3: Removing PWL point (0.00349,15)
V3: Removing PWL point (0.0035,15)
V3: Removing PWL point (0.00351,15)
V3: Removing PWL point (0.00352,15)
V3: Removing PWL point (0.00353,15)
V3: Removing PWL point (0.00354,15)
V3: Removing PWL point (0.00355,15)
V3: Removing PWL point (0.00356,15)
V3: Removing PWL point (0.00357,15)
V3: Removing PWL point (0.00358,15)
V3: Removing PWL point (0.00359,15)
V3: Removing PWL point (0.0036,15)
V3: Removing PWL point (0.00361,15)
V3: Removing PWL point (0.00362,15)
V3: Removing PWL point (0.00363,15)
V3: Removing PWL point (0.00364,15)
V3: Removing PWL point (0.00365,15)
V3: Removing PWL point (0.00366,15)
V3: Removing PWL point (0.00367,15)
V3: Removing PWL point (0.00368,15)
V3: Removing PWL point (0.00369,15)
V3: Removing PWL point (0.0037,15)
V3: Removing PWL point (0.00371,15)
V3: Removing PWL point (0.00372,15)
V3: Removing PWL point (0.00373,15)
V3: Removing PWL point (0.00374,15)
V3: Removing PWL point (0.00375,15)
V3: Removing PWL point (0.00376,15)
V3: Removing PWL point (0.00377,15)
V3: Removing PWL point (0.00378,15)
V3: Removing PWL point (0.00379,15)
V3: Removing PWL point (0.0038,15)
V3: Removing PWL point (0.00381,15)
V3: Removing PWL point (0.00382,15)
V3: Removing PWL point (0.00383,15)
V3: Removing PWL point (0.00384,15)
V3: Removing PWL point (0.00385,15)
V3: Removing PWL point (0.00386,15)
V3: Removing PWL point (0.00387,15)
V3: Removing PWL point (0.00388,15)
V3: Removing PWL point (0.00389,15)
V3: Removing PWL point (0.0039,15)
V3: Removing PWL point (0.00391,15)
V3: Removing PWL point (0.00392,15)
V3: Removing PWL point (0.00393,15)
V3: Removing PWL point (0.00394,15)
V3: Removing PWL point (0.00395,15)
V3: Removing PWL point (0.00396,15)
V3: Removing PWL point (0.00397,15)
V3: Removing PWL point (0.00398,15)
V3: Removing PWL point (0.00399,15)
V3: Removing PWL point (0.004,15)
V3: Removing PWL point (0.00401,15)
V3: Removing PWL point (0.00402,15)
V3: Removing PWL point (0.00403,15)
V3: Removing PWL point (0.00404,15)
V3: Removing PWL point (0.00405,15)
V3: Removing PWL point (0.00406,15)
V3: Removing PWL point (0.00407,15)
V3: Removing PWL point (0.00408,15)
V3: Removing PWL point (0.00409,15)
V3: Removing PWL point (0.0041,15)
V3: Removing PWL point (0.00411,15)
V3: Removing PWL point (0.00412,15)
V3: Removing PWL point (0.00413,15)
V3: Removing PWL point (0.00414,15)
V3: Removing PWL point (0.00415,15)
V3: Removing PWL point (0.00416,15)
V3: Removing PWL point (0.00417,15)
V3: Removing PWL point (0.00418,15)
V3: Removing PWL point (0.00419,15)
V3: Removing PWL point (0.0042,15)
V3: Removing PWL point (0.00421,15)
V3: Removing PWL point (0.00422,15)
V3: Removing PWL point (0.00423,15)
V3: Removing PWL point (0.00424,15)
V3: Removing PWL point (0.00425,15)
V3: Removing PWL point (0.00426,15)
V3: Removing PWL point (0.00427,15)
V3: Removing PWL point (0.00428,15)
V3: Removing PWL point (0.00429,15)
V3: Removing PWL point (0.0043,15)
V3: Removing PWL point (0.00431,15)
V3: Removing PWL point (0.00432,15)
V3: Removing PWL point (0.00433,15)
V3: Removing PWL point (0.00434,15)
V3: Removing PWL point (0.00435,15)
V3: Removing PWL point (0.00436,15)
V3: Removing PWL point (0.00437,15)
V3: Removing PWL point (0.00438,15)
V3: Removing PWL point (0.00439,15)
V3: Removing PWL point (0.0044,15)
V3: Removing PWL point (0.00441,15)
V3: Removing PWL point (0.00442,15)
V3: Removing PWL point (0.00443,15)
V3: Removing PWL point (0.00444,15)
V3: Removing PWL point (0.00445,15)
V3: Removing PWL point (0.00446,15)
V3: Removing PWL point (0.00447,15)
V3: Removing PWL point (0.00448,15)
V3: Removing PWL point (0.00449,15)
V3: Removing PWL point (0.0045,15)
V3: Removing PWL point (0.00451,15)
V3: Removing PWL point (0.00452,15)
V3: Removing PWL point (0.00453,15)
V3: Removing PWL point (0.00454,15)
V3: Removing PWL point (0.00455,15)
V3: Removing PWL point (0.00456,15)
V3: Removing PWL point (0.00457,15)
V3: Removing PWL point (0.00458,15)
V3: Removing PWL point (0.00459,15)
V3: Removing PWL point (0.0046,15)
V3: Removing PWL point (0.00461,15)
V3: Removing PWL point (0.00462,15)
V3: Removing PWL point (0.00463,15)
V3: Removing PWL point (0.00464,15)
V3: Removing PWL point (0.00465,15)
V3: Removing PWL point (0.00466,15)
V3: Removing PWL point (0.00467,15)
V3: Removing PWL point (0.00468,15)
V3: Removing PWL point (0.00469,15)
V3: Removing PWL point (0.0047,15)
V3: Removing PWL point (0.00471,15)
V3: Removing PWL point (0.00472,15)
V3: Removing PWL point (0.00473,15)
V3: Removing PWL point (0.00474,15)
V3: Removing PWL point (0.00475,15)
V3: Removing PWL point (0.00476,15)
V3: Removing PWL point (0.00477,15)
V3: Removing PWL point (0.00478,15)
V3: Removing PWL point (0.00479,15)
V3: Removing PWL point (0.0048,15)
V3: Removing PWL point (0.00481,15)
V3: Removing PWL point (0.00482,15)
V3: Removing PWL point (0.00483,15)
V3: Removing PWL point (0.00484,15)
V3: Removing PWL point (0.00485,15)
V3: Removing PWL point (0.00486,15)
V3: Removing PWL point (0.00487,15)
V3: Removing PWL point (0.00488,15)
V3: Removing PWL point (0.00489,15)
V3: Removing PWL point (0.0049,15)
V3: Removing PWL point (0.00491,15)
V3: Removing PWL point (0.00492,15)
V3: Removing PWL point (0.00493,15)
V3: Removing PWL point (0.00494,15)
V3: Removing PWL point (0.00495,15)
V3: Removing PWL point (0.00496,15)
V3: Removing PWL point (0.00497,15)
V3: Removing PWL point (0.00498,15)
V3: Removing PWL point (0.00499,15)
V3: Removing PWL point (0.005,15)
V3: Removing PWL point (0.00501,15)
V3: Removing PWL point (0.00502,15)
V3: Removing PWL point (0.00503,15)
V3: Removing PWL point (0.00504,15)
V3: Removing PWL point (0.00505,15)
V3: Removing PWL point (0.00506,15)
V3: Removing PWL point (0.00507,15)
V3: Removing PWL point (0.00508,15)
V3: Removing PWL point (0.00509,15)
V3: Removing PWL point (0.0051,15)
V3: Removing PWL point (0.00511,15)
V3: Removing PWL point (0.00512,15)
V3: Removing PWL point (0.00513,15)
V3: Removing PWL point (0.00514,15)
V3: Removing PWL point (0.00515,15)
V3: Removing PWL point (0.00516,15)
V3: Removing PWL point (0.00517,15)
V3: Removing PWL point (0.00518,15)
V3: Removing PWL point (0.00519,15)
V3: Removing PWL point (0.0052,15)
V3: Removing PWL point (0.00521,15)
V3: Removing PWL point (0.00522,15)
V3: Removing PWL point (0.00523,15)
V3: Removing PWL point (0.00524,15)
V3: Removing PWL point (0.00525,15)
V3: Removing PWL point (0.00526,15)
V3: Removing PWL point (0.00527,15)
V3: Removing PWL point (0.00528,15)
V3: Removing PWL point (0.00529,15)
V3: Removing PWL point (0.0053,15)
V3: Removing PWL point (0.00531,15)
V3: Removing PWL point (0.00532,15)
V3: Removing PWL point (0.00533,15)
V3: Removing PWL point (0.00534,15)
V3: Removing PWL point (0.00535,15)
V3: Removing PWL point (0.00536,15)
V3: Removing PWL point (0.00537,15)
V3: Removing PWL point (0.00538,15)
V3: Removing PWL point (0.00539,15)
V3: Removing PWL point (0.0054,15)
V3: Removing PWL point (0.00541,15)
V3: Removing PWL point (0.00542,15)
V3: Removing PWL point (0.00543,15)
V3: Removing PWL point (0.00544,15)
V3: Removing PWL point (0.00545,15)
V3: Removing PWL point (0.00546,15)
V3: Removing PWL point (0.00547,15)
V3: Removing PWL point (0.00548,15)
V3: Removing PWL point (0.00549,15)
V3: Removing PWL point (0.0055,15)
V3: Removing PWL point (0.00551,15)
V3: Removing PWL point (0.00552,15)
V3: Removing PWL point (0.00553,15)
V3: Removing PWL point (0.00554,15)
V3: Removing PWL point (0.00555,15)
V3: Removing PWL point (0.00556,15)
V3: Removing PWL point (0.00557,15)
V3: Removing PWL point (0.00558,15)
V3: Removing PWL point (0.00559,15)
V3: Removing PWL point (0.0056,15)
V3: Removing PWL point (0.00561,15)
V3: Removing PWL point (0.00562,15)
V3: Removing PWL point (0.00563,15)
V3: Removing PWL point (0.00564,15)
V3: Removing PWL point (0.00565,15)
V3: Removing PWL point (0.00566,15)
V3: Removing PWL point (0.00567,15)
V3: Removing PWL point (0.00568,15)
V3: Removing PWL point (0.00569,15)
V3: Removing PWL point (0.0057,15)
V3: Removing PWL point (0.00571,15)
V3: Removing PWL point (0.00572,15)
V3: Removing PWL point (0.00573,15)
V3: Removing PWL point (0.00574,15)
V3: Removing PWL point (0.00575,15)
V3: Removing PWL point (0.00576,15)
V3: Removing PWL point (0.00577,15)
V3: Removing PWL point (0.00578,15)
V3: Removing PWL point (0.00579,15)
V3: Removing PWL point (0.0058,15)
V3: Removing PWL point (0.00581,15)
V3: Removing PWL point (0.00582,15)
V3: Removing PWL point (0.00583,15)
V3: Removing PWL point (0.00584,15)
V3: Removing PWL point (0.00585,15)
V3: Removing PWL point (0.00586,15)
V3: Removing PWL point (0.00587,15)
V3: Removing PWL point (0.00588,15)
V3: Removing PWL point (0.00589,15)
V3: Removing PWL point (0.0059,15)
V3: Removing PWL point (0.00591,15)
V3: Removing PWL point (0.00592,15)
V3: Removing PWL point (0.00593,15)
V3: Removing PWL point (0.00594,15)
V3: Removing PWL point (0.00595,15)
V3: Removing PWL point (0.00596,15)
V3: Removing PWL point (0.00597,15)
V3: Removing PWL point (0.00598,15)
V3: Removing PWL point (0.00599,15)
V3: Removing PWL point (0.006,15)
V3: Removing PWL point (0.00601,15)
V3: Removing PWL point (0.00602,15)
V3: Removing PWL point (0.00603,15)
V3: Removing PWL point (0.00604,15)
V3: Removing PWL point (0.00605,15)
V3: Removing PWL point (0.00606,15)
V3: Removing PWL point (0.00607,15)
V3: Removing PWL point (0.00608,15)
V3: Removing PWL point (0.00609,15)
V3: Removing PWL point (0.0061,15)
V3: Removing PWL point (0.00611,15)
V3: Removing PWL point (0.00612,15)
V3: Removing PWL point (0.00613,15)
V3: Removing PWL point (0.00614,15)
V3: Removing PWL point (0.00615,15)
V3: Removing PWL point (0.00616,15)
V3: Removing PWL point (0.00617,15)
V3: Removing PWL point (0.00618,15)
V3: Removing PWL point (0.00619,15)
V3: Removing PWL point (0.0062,15)
V3: Removing PWL point (0.00621,15)
V3: Removing PWL point (0.00622,15)
V3: Removing PWL point (0.00623,15)
V3: Removing PWL point (0.00624,15)
V3: Removing PWL point (0.00625,15)
V3: Removing PWL point (0.00626,15)
V3: Removing PWL point (0.00627,15)
V3: Removing PWL point (0.00628,15)
V3: Removing PWL point (0.00629,15)
V3: Removing PWL point (0.0063,15)
V3: Removing PWL point (0.00631,15)
V3: Removing PWL point (0.00632,15)
V3: Removing PWL point (0.00633,15)
V3: Removing PWL point (0.00634,15)
V3: Removing PWL point (0.00635,15)
V3: Removing PWL point (0.00636,15)
V3: Removing PWL point (0.00637,15)
V3: Removing PWL point (0.00638,15)
V3: Removing PWL point (0.00639,15)
V3: Removing PWL point (0.0064,15)
V3: Removing PWL point (0.00641,15)
V3: Removing PWL point (0.00642,15)
V3: Removing PWL point (0.00643,15)
V3: Removing PWL point (0.00644,15)
V3: Removing PWL point (0.00645,15)
V3: Removing PWL point (0.00646,15)
V3: Removing PWL point (0.00647,15)
V3: Removing PWL point (0.00648,15)
V3: Removing PWL point (0.00649,15)
V3: Removing PWL point (0.0065,15)
V3: Removing PWL point (0.00651,15)
V3: Removing PWL point (0.00652,15)
V3: Removing PWL point (0.00653,15)
V3: Removing PWL point (0.00654,15)
V3: Removing PWL point (0.00655,15)
V3: Removing PWL point (0.00656,15)
V3: Removing PWL point (0.00657,15)
V3: Removing PWL point (0.00658,15)
V3: Removing PWL point (0.00659,15)
V3: Removing PWL point (0.0066,15)
V3: Removing PWL point (0.00661,15)
V3: Removing PWL point (0.00662,15)
V3: Removing PWL point (0.00663,15)
V3: Removing PWL point (0.00664,15)
V3: Removing PWL point (0.00665,15)
V2: Removing PWL point (1e-005,0)
V2: Removing PWL point (2e-005,0)
V2: Removing PWL point (3e-005,0)
V2: Removing PWL point (4e-005,0)
V2: Removing PWL point (5e-005,0)
V2: Removing PWL point (6e-005,0)
V2: Removing PWL point (7e-005,0)
V2: Removing PWL point (8e-005,0)
V2: Removing PWL point (9e-005,0)
V2: Removing PWL point (0.0001,0)
V2: Removing PWL point (0.00011,0)
V2: Removing PWL point (0.00012,0)
V2: Removing PWL point (0.00013,0)
V2: Removing PWL point (0.00014,0)
V2: Removing PWL point (0.00015,0)
V2: Removing PWL point (0.00016,0)
V2: Removing PWL point (0.00017,0)
V2: Removing PWL point (0.00018,0)
V2: Removing PWL point (0.00019,0)
V2: Removing PWL point (0.0002,0)
V2: Removing PWL point (0.00021,0)
V2: Removing PWL point (0.00022,0)
V2: Removing PWL point (0.00023,0)
V2: Removing PWL point (0.00024,0)
V2: Removing PWL point (0.00025,0)
V2: Removing PWL point (0.00026,0)
V2: Removing PWL point (0.00027,0)
V2: Removing PWL point (0.00028,0)
V2: Removing PWL point (0.00029,0)
V2: Removing PWL point (0.0003,0)
V2: Removing PWL point (0.00031,0)
V2: Removing PWL point (0.00032,0)
V2: Removing PWL point (0.00033,0)
V2: Removing PWL point (0.00034,0)
V2: Removing PWL point (0.00035,0)
V2: Removing PWL point (0.00036,0)
V2: Removing PWL point (0.00037,0)
V2: Removing PWL point (0.00038,0)
V2: Removing PWL point (0.00039,0)
V2: Removing PWL point (0.0004,0)
V2: Removing PWL point (0.00041,0)
V2: Removing PWL point (0.00042,0)
V2: Removing PWL point (0.00043,0)
V2: Removing PWL point (0.00044,0)
V2: Removing PWL point (0.00045,0)
V2: Removing PWL point (0.00046,0)
V2: Removing PWL point (0.00047,0)
V2: Removing PWL point (0.00048,0)
V2: Removing PWL point (0.00049,0)
V2: Removing PWL point (0.0005,0)
V2: Removing PWL point (0.00051,0)
V2: Removing PWL point (0.00052,0)
V2: Removing PWL point (0.00053,0)
V2: Removing PWL point (0.00054,0)
V2: Removing PWL point (0.00055,0)
V2: Removing PWL point (0.00056,0)
V2: Removing PWL point (0.00057,0)
V2: Removing PWL point (0.00058,0)
V2: Removing PWL point (0.00059,0)
V2: Removing PWL point (0.0006,0)
V2: Removing PWL point (0.00061,0)
V2: Removing PWL point (0.00062,0)
V2: Removing PWL point (0.00063,0)
V2: Removing PWL point (0.00064,0)
V2: Removing PWL point (0.00065,0)
V2: Removing PWL point (0.00066,0)
V2: Removing PWL point (0.00067,0)
V2: Removing PWL point (0.00068,0)
V2: Removing PWL point (0.00069,0)
V2: Removing PWL point (0.0007,0)
V2: Removing PWL point (0.00071,0)
V2: Removing PWL point (0.00072,0)
V2: Removing PWL point (0.00073,0)
V2: Removing PWL point (0.00074,0)
V2: Removing PWL point (0.00075,0)
V2: Removing PWL point (0.00076,0)
V2: Removing PWL point (0.00077,0)
V2: Removing PWL point (0.00078,0)
V2: Removing PWL point (0.00079,0)
V2: Removing PWL point (0.0008,0)
V2: Removing PWL point (0.00081,0)
V2: Removing PWL point (0.00082,0)
V2: Removing PWL point (0.00083,0)
V2: Removing PWL point (0.00084,0)
V2: Removing PWL point (0.00085,0)
V2: Removing PWL point (0.00086,0)
V2: Removing PWL point (0.00087,0)
V2: Removing PWL point (0.00088,0)
V2: Removing PWL point (0.00089,0)
V2: Removing PWL point (0.0009,0)
V2: Removing PWL point (0.00091,0)
V2: Removing PWL point (0.00092,0)
V2: Removing PWL point (0.00093,0)
V2: Removing PWL point (0.00094,0)
V2: Removing PWL point (0.00095,0)
V2: Removing PWL point (0.00096,0)
V2: Removing PWL point (0.00097,0)
V2: Removing PWL point (0.00098,0)
V2: Removing PWL point (0.00099,0)
V2: Removing PWL point (0.001,0)
V2: Removing PWL point (0.00101,0)
V2: Removing PWL point (0.00102,0)
V2: Removing PWL point (0.00103,0)
V2: Removing PWL point (0.00104,0)
V2: Removing PWL point (0.00105,0)
V2: Removing PWL point (0.00106,0)
V2: Removing PWL point (0.00107,0)
V2: Removing PWL point (0.00108,0)
V2: Removing PWL point (0.00109,0)
V2: Removing PWL point (0.0011,0)
V2: Removing PWL point (0.00111,0)
V2: Removing PWL point (0.00112,0)
V2: Removing PWL point (0.00113,0)
V2: Removing PWL point (0.00114,0)
V2: Removing PWL point (0.00115,0)
V2: Removing PWL point (0.00116,0)
V2: Removing PWL point (0.00117,0)
V2: Removing PWL point (0.00118,0)
V2: Removing PWL point (0.00119,0)
V2: Removing PWL point (0.0012,0)
V2: Removing PWL point (0.00121,0)
V2: Removing PWL point (0.00122,0)
V2: Removing PWL point (0.00123,0)
V2: Removing PWL point (0.00124,0)
V2: Removing PWL point (0.00125,0)
V2: Removing PWL point (0.00126,0)
V2: Removing PWL point (0.00127,0)
V2: Removing PWL point (0.00128,0)
V2: Removing PWL point (0.00129,0)
V2: Removing PWL point (0.0013,0)
V2: Removing PWL point (0.00131,0)
V2: Removing PWL point (0.00132,0)
V2: Removing PWL point (0.00133,0)
V2: Removing PWL point (0.00134,0)
V2: Removing PWL point (0.00135,0)
V2: Removing PWL point (0.00136,0)
V2: Removing PWL point (0.00137,0)
V2: Removing PWL point (0.00138,0)
V2: Removing PWL point (0.00139,0)
V2: Removing PWL point (0.0014,0)
V2: Removing PWL point (0.00141,0)
V2: Removing PWL point (0.00142,0)
V2: Removing PWL point (0.00143,0)
V2: Removing PWL point (0.00144,0)
V2: Removing PWL point (0.00145,0)
V2: Removing PWL point (0.00146,0)
V2: Removing PWL point (0.00147,0)
V2: Removing PWL point (0.00148,0)
V2: Removing PWL point (0.00149,0)
V2: Removing PWL point (0.0015,0)
V2: Removing PWL point (0.00151,0)
V2: Removing PWL point (0.00152,0)
V2: Removing PWL point (0.00153,0)
V2: Removing PWL point (0.00154,0)
V2: Removing PWL point (0.00155,0)
V2: Removing PWL point (0.00156,0)
V2: Removing PWL point (0.00157,0)
V2: Removing PWL point (0.00158,0)
V2: Removing PWL point (0.00159,0)
V2: Removing PWL point (0.0016,0)
V2: Removing PWL point (0.00161,0)
V2: Removing PWL point (0.00162,0)
V2: Removing PWL point (0.00163,0)
V2: Removing PWL point (0.00164,0)
V2: Removing PWL point (0.00165,0)
V2: Removing PWL point (0.00166,0)
V2: Removing PWL point (0.00167,0)
V2: Removing PWL point (0.00168,0)
V2: Removing PWL point (0.00169,0)
V2: Removing PWL point (0.0017,0)
V2: Removing PWL point (0.00171,0)
V2: Removing PWL point (0.00172,0)
V2: Removing PWL point (0.00173,0)
V2: Removing PWL point (0.00174,0)
V2: Removing PWL point (0.00175,0)
V2: Removing PWL point (0.00176,0)
V2: Removing PWL point (0.00177,0)
V2: Removing PWL point (0.00178,0)
V2: Removing PWL point (0.00179,0)
V2: Removing PWL point (0.0018,0)
V2: Removing PWL point (0.00181,0)
V2: Removing PWL point (0.00182,0)
V2: Removing PWL point (0.00183,0)
V2: Removing PWL point (0.00184,0)
V2: Removing PWL point (0.00185,0)
V2: Removing PWL point (0.00186,0)
V2: Removing PWL point (0.00187,0)
V2: Removing PWL point (0.00188,0)
V2: Removing PWL point (0.00189,0)
V2: Removing PWL point (0.0019,0)
V2: Removing PWL point (0.00191,0)
V2: Removing PWL point (0.00192,0)
V2: Removing PWL point (0.00193,0)
V2: Removing PWL point (0.00194,0)
V2: Removing PWL point (0.00195,0)
V2: Removing PWL point (0.00196,0)
V2: Removing PWL point (0.00197,0)
V2: Removing PWL point (0.00198,0)
V2: Removing PWL point (0.00199,0)
V2: Removing PWL point (0.002,0)
V2: Removing PWL point (0.00201,0)
V2: Removing PWL point (0.00202,0)
V2: Removing PWL point (0.00203,0)
V2: Removing PWL point (0.00204,0)
V2: Removing PWL point (0.00205,0)
V2: Removing PWL point (0.00206,0)
V2: Removing PWL point (0.00207,0)
V2: Removing PWL point (0.00208,0)
V2: Removing PWL point (0.00209,0)
V2: Removing PWL point (0.0021,0)
V2: Removing PWL point (0.00211,0)
V2: Removing PWL point (0.00212,0)
V2: Removing PWL point (0.00213,0)
V2: Removing PWL point (0.00214,0)
V2: Removing PWL point (0.00215,0)
V2: Removing PWL point (0.00216,0)
V2: Removing PWL point (0.00217,0)
V2: Removing PWL point (0.00218,0)
V2: Removing PWL point (0.00219,0)
V2: Removing PWL point (0.0022,0)
V2: Removing PWL point (0.00221,0)
V2: Removing PWL point (0.00222,0)
V2: Removing PWL point (0.00223,0)
V2: Removing PWL point (0.00224,0)
V2: Removing PWL point (0.00225,0)
V2: Removing PWL point (0.00226,0)
V2: Removing PWL point (0.00227,0)
V2: Removing PWL point (0.00228,0)
V2: Removing PWL point (0.00229,0)
V2: Removing PWL point (0.0023,0)
V2: Removing PWL point (0.00231,0)
V2: Removing PWL point (0.00232,0)
V2: Removing PWL point (0.00233,0)
V2: Removing PWL point (0.00234,0)
V2: Removing PWL point (0.00235,0)
V2: Removing PWL point (0.00236,0)
V2: Removing PWL point (0.00237,0)
V2: Removing PWL point (0.00238,0)
V2: Removing PWL point (0.00239,0)
V2: Removing PWL point (0.0024,0)
V2: Removing PWL point (0.00241,0)
V2: Removing PWL point (0.00242,0)
V2: Removing PWL point (0.00243,0)
V2: Removing PWL point (0.00244,0)
V2: Removing PWL point (0.00245,0)
V2: Removing PWL point (0.00246,0)
V2: Removing PWL point (0.00247,0)
V2: Removing PWL point (0.00248,0)
V2: Removing PWL point (0.00249,0)
V2: Removing PWL point (0.0025,0)
V2: Removing PWL point (0.00251,0)
V2: Removing PWL point (0.00252,0)
V2: Removing PWL point (0.00253,0)
V2: Removing PWL point (0.00254,0)
V2: Removing PWL point (0.00255,0)
V2: Removing PWL point (0.00256,0)
V2: Removing PWL point (0.00257,0)
V2: Removing PWL point (0.00258,0)
V2: Removing PWL point (0.00259,0)
V2: Removing PWL point (0.0026,0)
V2: Removing PWL point (0.00261,0)
V2: Removing PWL point (0.00262,0)
V2: Removing PWL point (0.00263,0)
V2: Removing PWL point (0.00264,0)
V2: Removing PWL point (0.00265,0)
V2: Removing PWL point (0.00266,0)
V2: Removing PWL point (0.00267,0)
V2: Removing PWL point (0.00268,0)
V2: Removing PWL point (0.00269,0)
V2: Removing PWL point (0.0027,0)
V2: Removing PWL point (0.00271,0)
V2: Removing PWL point (0.00272,0)
V2: Removing PWL point (0.00273,0)
V2: Removing PWL point (0.00274,0)
V2: Removing PWL point (0.00275,0)
V2: Removing PWL point (0.00276,0)
V2: Removing PWL point (0.00277,0)
V2: Removing PWL point (0.00278,0)
V2: Removing PWL point (0.00279,0)
V2: Removing PWL point (0.0028,0)
V2: Removing PWL point (0.00281,0)
V2: Removing PWL point (0.00282,0)
V2: Removing PWL point (0.00283,0)
V2: Removing PWL point (0.00284,0)
V2: Removing PWL point (0.00285,0)
V2: Removing PWL point (0.00286,0)
V2: Removing PWL point (0.00287,0)
V2: Removing PWL point (0.00288,0)
V2: Removing PWL point (0.00289,0)
V2: Removing PWL point (0.0029,0)
V2: Removing PWL point (0.00291,0)
V2: Removing PWL point (0.00292,0)
V2: Removing PWL point (0.00293,0)
V2: Removing PWL point (0.00294,0)
V2: Removing PWL point (0.00295,0)
V2: Removing PWL point (0.00296,0)
V2: Removing PWL point (0.00297,0)
V2: Removing PWL point (0.00298,0)
V2: Removing PWL point (0.00299,0)
V2: Removing PWL point (0.003,0)
V2: Removing PWL point (0.00301,0)
V2: Removing PWL point (0.00302,0)
V2: Removing PWL point (0.00303,0)
V2: Removing PWL point (0.00304,0)
V2: Removing PWL point (0.00305,0)
V2: Removing PWL point (0.00306,0)
V2: Removing PWL point (0.00307,0)
V2: Removing PWL point (0.00308,0)
V2: Removing PWL point (0.00309,0)
V2: Removing PWL point (0.0031,0)
V2: Removing PWL point (0.00311,0)
V2: Removing PWL point (0.00312,0)
V2: Removing PWL point (0.00313,0)
V2: Removing PWL point (0.00314,0)
V2: Removing PWL point (0.00315,0)
V2: Removing PWL point (0.00316,0)
V2: Removing PWL point (0.00317,0)
V2: Removing PWL point (0.00318,0)
V2: Removing PWL point (0.00319,0)
V2: Removing PWL point (0.0032,0)
V2: Removing PWL point (0.00321,0)
V2: Removing PWL point (0.00322,0)
V2: Removing PWL point (0.00323,0)
V2: Removing PWL point (0.00324,0)
V2: Removing PWL point (0.00325,0)
V2: Removing PWL point (0.00326,0)
V2: Removing PWL point (0.00327,0)
V2: Removing PWL point (0.00328,0)
V2: Removing PWL point (0.00329,0)
V2: Removing PWL point (0.0033,0)
V2: Removing PWL point (0.00331,0)
V2: Removing PWL point (0.00332,0)
V2: Removing PWL point (0.00333,0)
V2: Removing PWL point (0.00334,0)
V2: Removing PWL point (0.00335,0)
V2: Removing PWL point (0.00336,0)
V2: Removing PWL point (0.00337,0)
V2: Removing PWL point (0.00338,0)
V2: Removing PWL point (0.00339,0)
V2: Removing PWL point (0.0034,0)
V2: Removing PWL point (0.00341,0)
V2: Removing PWL point (0.00342,0)
V2: Removing PWL point (0.00343,0)
V2: Removing PWL point (0.00344,0)
V2: Removing PWL point (0.00345,0)
V2: Removing PWL point (0.00346,0)
V2: Removing PWL point (0.00347,0)
V2: Removing PWL point (0.00348,0)
V2: Removing PWL point (0.00349,0)
V2: Removing PWL point (0.0035,0)
V2: Removing PWL point (0.00351,0)
V2: Removing PWL point (0.00352,0)
V2: Removing PWL point (0.00353,0)
V2: Removing PWL point (0.00354,0)
V2: Removing PWL point (0.00355,0)
V2: Removing PWL point (0.00356,0)
V2: Removing PWL point (0.00357,0)
V2: Removing PWL point (0.00358,0)
V2: Removing PWL point (0.00359,0)
V2: Removing PWL point (0.0036,0)
V2: Removing PWL point (0.00361,0)
V2: Removing PWL point (0.00362,0)
V2: Removing PWL point (0.00363,0)
V2: Removing PWL point (0.00364,0)
V2: Removing PWL point (0.00365,0)
V2: Removing PWL point (0.00366,0)
V2: Removing PWL point (0.00367,0)
V2: Removing PWL point (0.00368,0)
V2: Removing PWL point (0.00369,0)
V2: Removing PWL point (0.0037,0)
V2: Removing PWL point (0.00371,0)
V2: Removing PWL point (0.00372,0)
V2: Removing PWL point (0.00373,0)
V2: Removing PWL point (0.00374,0)
V2: Removing PWL point (0.00375,0)
V2: Removing PWL point (0.00376,0)
V2: Removing PWL point (0.00377,0)
V2: Removing PWL point (0.00378,0)
V2: Removing PWL point (0.00379,0)
V2: Removing PWL point (0.0038,0)
V2: Removing PWL point (0.00381,0)
V2: Removing PWL point (0.00382,0)
V2: Removing PWL point (0.00383,0)
V2: Removing PWL point (0.00384,0)
V2: Removing PWL point (0.00385,0)
V2: Removing PWL point (0.00386,0)
V2: Removing PWL point (0.00387,0)
V2: Removing PWL point (0.00388,0)
V2: Removing PWL point (0.00389,0)
V2: Removing PWL point (0.0039,0)
V2: Removing PWL point (0.00391,0)
V2: Removing PWL point (0.00392,0)
V2: Removing PWL point (0.00393,0)
V2: Removing PWL point (0.00394,0)
V2: Removing PWL point (0.00395,0)
V2: Removing PWL point (0.00396,0)
V2: Removing PWL point (0.00397,0)
V2: Removing PWL point (0.00398,0)
V2: Removing PWL point (0.00399,0)
V2: Removing PWL point (0.004,0)
V2: Removing PWL point (0.00401,0)
V2: Removing PWL point (0.00402,0)
V2: Removing PWL point (0.00403,0)
V2: Removing PWL point (0.00404,0)
V2: Removing PWL point (0.00405,0)
V2: Removing PWL point (0.00406,0)
V2: Removing PWL point (0.00407,0)
V2: Removing PWL point (0.00408,0)
V2: Removing PWL point (0.00409,0)
V2: Removing PWL point (0.0041,0)
V2: Removing PWL point (0.00411,0)
V2: Removing PWL point (0.00412,0)
V2: Removing PWL point (0.00413,0)
V2: Removing PWL point (0.00414,0)
V2: Removing PWL point (0.00415,0)
V2: Removing PWL point (0.00416,0)
V2: Removing PWL point (0.00417,0)
V2: Removing PWL point (0.00418,0)
V2: Removing PWL point (0.00419,0)
V2: Removing PWL point (0.0042,0)
V2: Removing PWL point (0.00421,0)
V2: Removing PWL point (0.00422,0)
V2: Removing PWL point (0.00423,0)
V2: Removing PWL point (0.00424,0)
V2: Removing PWL point (0.00425,0)
V2: Removing PWL point (0.00426,0)
V2: Removing PWL point (0.00427,0)
V2: Removing PWL point (0.00428,0)
V2: Removing PWL point (0.00429,0)
V2: Removing PWL point (0.0043,0)
V2: Removing PWL point (0.00431,0)
V2: Removing PWL point (0.00432,0)
V2: Removing PWL point (0.00433,0)
V2: Removing PWL point (0.00434,0)
V2: Removing PWL point (0.00435,0)
V2: Removing PWL point (0.00436,0)
V2: Removing PWL point (0.00437,0)
V2: Removing PWL point (0.00438,0)
V2: Removing PWL point (0.00439,0)
V2: Removing PWL point (0.0044,0)
V2: Removing PWL point (0.00441,0)
V2: Removing PWL point (0.00442,0)
V2: Removing PWL point (0.00443,0)
V2: Removing PWL point (0.00444,0)
V2: Removing PWL point (0.00445,0)
V2: Removing PWL point (0.00446,0)
V2: Removing PWL point (0.00447,0)
V2: Removing PWL point (0.00448,0)
V2: Removing PWL point (0.00449,0)
V2: Removing PWL point (0.0045,0)
V2: Removing PWL point (0.00451,0)
V2: Removing PWL point (0.00452,0)
V2: Removing PWL point (0.00453,0)
V2: Removing PWL point (0.00454,0)
V2: Removing PWL point (0.00455,0)
V2: Removing PWL point (0.00456,0)
V2: Removing PWL point (0.00457,0)
V2: Removing PWL point (0.00458,0)
V2: Removing PWL point (0.00459,0)
V2: Removing PWL point (0.0046,0)
V2: Removing PWL point (0.00461,0)
V2: Removing PWL point (0.00462,0)
V2: Removing PWL point (0.00463,0)
V2: Removing PWL point (0.00464,0)
V2: Removing PWL point (0.00465,0)
V2: Removing PWL point (0.00466,0)
V2: Removing PWL point (0.00467,0)
V2: Removing PWL point (0.00468,0)
V2: Removing PWL point (0.00469,0)
V2: Removing PWL point (0.0047,0)
V2: Removing PWL point (0.00471,0)
V2: Removing PWL point (0.00472,0)
V2: Removing PWL point (0.00473,0)
V2: Removing PWL point (0.00474,0)
V2: Removing PWL point (0.00475,0)
V2: Removing PWL point (0.00476,0)
V2: Removing PWL point (0.00477,0)
V2: Removing PWL point (0.00478,0)
V2: Removing PWL point (0.00479,0)
V2: Removing PWL point (0.0048,0)
V2: Removing PWL point (0.00481,0)
V2: Removing PWL point (0.00482,0)
V2: Removing PWL point (0.00483,0)
V2: Removing PWL point (0.00484,0)
V2: Removing PWL point (0.00485,0)
V2: Removing PWL point (0.00486,0)
V2: Removing PWL point (0.00487,0)
V2: Removing PWL point (0.00488,0)
V2: Removing PWL point (0.00489,0)
V2: Removing PWL point (0.0049,0)
V2: Removing PWL point (0.00491,0)
V2: Removing PWL point (0.00492,0)
V2: Removing PWL point (0.00493,0)
V2: Removing PWL point (0.00494,0)
V2: Removing PWL point (0.00495,0)
V2: Removing PWL point (0.00496,0)
V2: Removing PWL point (0.00497,0)
V2: Removing PWL point (0.00498,0)
V2: Removing PWL point (0.00499,0)
V2: Removing PWL point (0.005,0)
V2: Removing PWL point (0.00501,0)
V2: Removing PWL point (0.00502,0)
V2: Removing PWL point (0.00503,0)
V2: Removing PWL point (0.00504,0)
V2: Removing PWL point (0.00505,0)
V2: Removing PWL point (0.00506,0)
V2: Removing PWL point (0.00507,0)
V2: Removing PWL point (0.00508,0)
V2: Removing PWL point (0.00509,0)
V2: Removing PWL point (0.0051,0)
V2: Removing PWL point (0.00511,0)
V2: Removing PWL point (0.00512,0)
V2: Removing PWL point (0.00513,0)
V2: Removing PWL point (0.00514,0)
V2: Removing PWL point (0.00515,0)
V2: Removing PWL point (0.00516,0)
V2: Removing PWL point (0.00517,0)
V2: Removing PWL point (0.00518,0)
V2: Removing PWL point (0.00519,0)
V2: Removing PWL point (0.0052,0)
V2: Removing PWL point (0.00521,0)
V2: Removing PWL point (0.00522,0)
V2: Removing PWL point (0.00523,0)
V2: Removing PWL point (0.00524,0)
V2: Removing PWL point (0.00525,0)
V2: Removing PWL point (0.00526,0)
V2: Removing PWL point (0.00527,0)
V2: Removing PWL point (0.00528,0)
V2: Removing PWL point (0.00529,0)
V2: Removing PWL point (0.0053,0)
V2: Removing PWL point (0.00531,0)
V2: Removing PWL point (0.00532,0)
V2: Removing PWL point (0.00533,0)
V2: Removing PWL point (0.00534,0)
V2: Removing PWL point (0.00535,0)
V2: Removing PWL point (0.00536,0)
V2: Removing PWL point (0.00537,0)
V2: Removing PWL point (0.00538,0)
V2: Removing PWL point (0.00539,0)
V2: Removing PWL point (0.0054,0)
V2: Removing PWL point (0.00541,0)
V2: Removing PWL point (0.00542,0)
V2: Removing PWL point (0.00543,0)
V2: Removing PWL point (0.00544,0)
V2: Removing PWL point (0.00545,0)
V2: Removing PWL point (0.00546,0)
V2: Removing PWL point (0.00547,0)
V2: Removing PWL point (0.00548,0)
V2: Removing PWL point (0.00549,0)
V2: Removing PWL point (0.0055,0)
V2: Removing PWL point (0.00551,0)
V2: Removing PWL point (0.00552,0)
V2: Removing PWL point (0.00553,0)
V2: Removing PWL point (0.00554,0)
V2: Removing PWL point (0.00555,0)
V2: Removing PWL point (0.00556,0)
V2: Removing PWL point (0.00557,0)
V2: Removing PWL point (0.00558,0)
V2: Removing PWL point (0.00559,0)
V2: Removing PWL point (0.0056,0)
V2: Removing PWL point (0.00561,0)
V2: Removing PWL point (0.00562,0)
V2: Removing PWL point (0.00563,0)
V2: Removing PWL point (0.00564,0)
V2: Removing PWL point (0.00565,0)
V2: Removing PWL point (0.00566,0)
V2: Removing PWL point (0.00567,0)
V2: Removing PWL point (0.00568,0)
V2: Removing PWL point (0.00569,0)
V2: Removing PWL point (0.0057,0)
V2: Removing PWL point (0.00571,0)
V2: Removing PWL point (0.00572,0)
V2: Removing PWL point (0.00573,0)
V2: Removing PWL point (0.00574,0)
V2: Removing PWL point (0.00575,0)
V2: Removing PWL point (0.00576,0)
V2: Removing PWL point (0.00577,0)
V2: Removing PWL point (0.00578,0)
V2: Removing PWL point (0.00579,0)
V2: Removing PWL point (0.0058,0)
V2: Removing PWL point (0.00581,0)
V2: Removing PWL point (0.00582,0)
V2: Removing PWL point (0.00583,0)
V2: Removing PWL point (0.00584,0)
V2: Removing PWL point (0.00585,0)
V2: Removing PWL point (0.00586,0)
V2: Removing PWL point (0.00587,0)
V2: Removing PWL point (0.00588,0)
V2: Removing PWL point (0.00589,0)
V2: Removing PWL point (0.0059,0)
V2: Removing PWL point (0.00591,0)
V2: Removing PWL point (0.00592,0)
V2: Removing PWL point (0.00593,0)
V2: Removing PWL point (0.00594,0)
V2: Removing PWL point (0.00595,0)
V2: Removing PWL point (0.00596,0)
V2: Removing PWL point (0.00597,0)
V2: Removing PWL point (0.00598,0)
V2: Removing PWL point (0.00599,0)
V2: Removing PWL point (0.006,0)
V2: Removing PWL point (0.00601,0)
V2: Removing PWL point (0.00602,0)
V2: Removing PWL point (0.00603,0)
V2: Removing PWL point (0.00604,0)
V2: Removing PWL point (0.00605,0)
V2: Removing PWL point (0.00606,0)
V2: Removing PWL point (0.00607,0)
V2: Removing PWL point (0.00608,0)
V2: Removing PWL point (0.00609,0)
V2: Removing PWL point (0.0061,0)
V2: Removing PWL point (0.00611,0)
V2: Removing PWL point (0.00612,0)
V2: Removing PWL point (0.00613,0)
V2: Removing PWL point (0.00614,0)
V2: Removing PWL point (0.00615,0)
V2: Removing PWL point (0.00616,0)
V2: Removing PWL point (0.00617,0)
V2: Removing PWL point (0.00618,0)
V2: Removing PWL point (0.00619,0)
V2: Removing PWL point (0.0062,0)
V2: Removing PWL point (0.00621,0)
V2: Removing PWL point (0.00622,0)
V2: Removing PWL point (0.00623,0)
V2: Removing PWL point (0.00624,0)
V2: Removing PWL point (0.00625,0)
V2: Removing PWL point (0.00626,0)
V2: Removing PWL point (0.00627,0)
V2: Removing PWL point (0.00628,0)
V2: Removing PWL point (0.00629,0)
V2: Removing PWL point (0.0063,0)
V2: Removing PWL point (0.00631,0)
V2: Removing PWL point (0.00632,0)
V2: Removing PWL point (0.00633,0)
V2: Removing PWL point (0.00634,0)
V2: Removing PWL point (0.00635,0)
V2: Removing PWL point (0.00636,0)
V2: Removing PWL point (0.00637,0)
V2: Removing PWL point (0.00638,0)
V2: Removing PWL point (0.00639,0)
V2: Removing PWL point (0.0064,0)
V2: Removing PWL point (0.00641,0)
V2: Removing PWL point (0.00642,0)
V2: Removing PWL point (0.00643,0)
V2: Removing PWL point (0.00644,0)
V2: Removing PWL point (0.00645,0)
V2: Removing PWL point (0.00646,0)
V2: Removing PWL point (0.00647,0)
V2: Removing PWL point (0.00648,0)
V2: Removing PWL point (0.00649,0)
V2: Removing PWL point (0.0065,0)
V2: Removing PWL point (0.00651,0)
V2: Removing PWL point (0.00652,0)
V2: Removing PWL point (0.00653,0)
V2: Removing PWL point (0.00654,0)
V2: Removing PWL point (0.00655,0)
V2: Removing PWL point (0.00656,0)
V2: Removing PWL point (0.00657,0)
V2: Removing PWL point (0.00658,0)
V2: Removing PWL point (0.00659,0)
V2: Removing PWL point (0.0066,0)
V2: Removing PWL point (0.00661,0)
V2: Removing PWL point (0.00662,0)
V2: Removing PWL point (0.00663,0)
V2: Removing PWL point (0.00664,0)
V2: Removing PWL point (0.00665,0)
V1: Removing PWL point (1e-005,15)
V1: Removing PWL point (2e-005,15)
V1: Removing PWL point (3e-005,15)
V1: Removing PWL point (4e-005,15)
V1: Removing PWL point (5e-005,15)
V1: Removing PWL point (6e-005,15)
V1: Removing PWL point (7e-005,15)
V1: Removing PWL point (8e-005,15)
V1: Removing PWL point (9e-005,15)
V1: Removing PWL point (0.0001,15)
V1: Removing PWL point (0.00011,15)
V1: Removing PWL point (0.00012,15)
V1: Removing PWL point (0.00013,15)
V1: Removing PWL point (0.00014,15)
V1: Removing PWL point (0.00015,15)
V1: Removing PWL point (0.00016,15)
V1: Removing PWL point (0.00017,15)
V1: Removing PWL point (0.00018,15)
V1: Removing PWL point (0.00019,15)
V1: Removing PWL point (0.0002,15)
V1: Removing PWL point (0.00021,15)
V1: Removing PWL point (0.00022,15)
V1: Removing PWL point (0.00023,15)
V1: Removing PWL point (0.00024,15)
V1: Removing PWL point (0.00025,15)
V1: Removing PWL point (0.00026,15)
V1: Removing PWL point (0.00027,15)
V1: Removing PWL point (0.00028,15)
V1: Removing PWL point (0.00029,15)
V1: Removing PWL point (0.0003,15)
V1: Removing PWL point (0.00031,15)
V1: Removing PWL point (0.00032,15)
V1: Removing PWL point (0.00033,15)
V1: Removing PWL point (0.00034,15)
V1: Removing PWL point (0.00035,15)
V1: Removing PWL point (0.00036,15)
V1: Removing PWL point (0.00037,15)
V1: Removing PWL point (0.00038,15)
V1: Removing PWL point (0.00039,15)
V1: Removing PWL point (0.0004,15)
V1: Removing PWL point (0.00041,15)
V1: Removing PWL point (0.00042,15)
V1: Removing PWL point (0.00043,15)
V1: Removing PWL point (0.00044,15)
V1: Removing PWL point (0.00045,15)
V1: Removing PWL point (0.00046,15)
V1: Removing PWL point (0.00047,15)
V1: Removing PWL point (0.00048,15)
V1: Removing PWL point (0.00049,15)
V1: Removing PWL point (0.0005,15)
V1: Removing PWL point (0.00051,15)
V1: Removing PWL point (0.00052,15)
V1: Removing PWL point (0.00053,15)
V1: Removing PWL point (0.00054,15)
V1: Removing PWL point (0.00055,15)
V1: Removing PWL point (0.00056,15)
V1: Removing PWL point (0.00057,15)
V1: Removing PWL point (0.00058,15)
V1: Removing PWL point (0.00059,15)
V1: Removing PWL point (0.0006,15)
V1: Removing PWL point (0.00061,15)
V1: Removing PWL point (0.00062,15)
V1: Removing PWL point (0.00063,15)
V1: Removing PWL point (0.00064,15)
V1: Removing PWL point (0.00065,15)
V1: Removing PWL point (0.00066,15)
V1: Removing PWL point (0.00067,15)
V1: Removing PWL point (0.00068,15)
V1: Removing PWL point (0.00069,15)
V1: Removing PWL point (0.0007,15)
V1: Removing PWL point (0.00071,15)
V1: Removing PWL point (0.00072,15)
V1: Removing PWL point (0.00073,15)
V1: Removing PWL point (0.00074,15)
V1: Removing PWL point (0.00075,15)
V1: Removing PWL point (0.00076,15)
V1: Removing PWL point (0.00077,15)
V1: Removing PWL point (0.00078,15)
V1: Removing PWL point (0.00079,15)
V1: Removing PWL point (0.0008,15)
V1: Removing PWL point (0.00081,15)
V1: Removing PWL point (0.00082,15)
V1: Removing PWL point (0.00083,15)
V1: Removing PWL point (0.00084,15)
V1: Removing PWL point (0.00085,15)
V1: Removing PWL point (0.00086,15)
V1: Removing PWL point (0.00087,15)
V1: Removing PWL point (0.00088,15)
V1: Removing PWL point (0.00089,15)
V1: Removing PWL point (0.0009,15)
V1: Removing PWL point (0.00091,15)
V1: Removing PWL point (0.00092,15)
V1: Removing PWL point (0.00093,15)
V1: Removing PWL point (0.00094,15)
V1: Removing PWL point (0.00095,15)
V1: Removing PWL point (0.00096,15)
V1: Removing PWL point (0.00097,15)
V1: Removing PWL point (0.00098,15)
V1: Removing PWL point (0.00099,15)
V1: Removing PWL point (0.001,15)
V1: Removing PWL point (0.00101,15)
V1: Removing PWL point (0.00102,15)
V1: Removing PWL point (0.00103,15)
V1: Removing PWL point (0.00104,15)
V1: Removing PWL point (0.00105,15)
V1: Removing PWL point (0.00106,15)
V1: Removing PWL point (0.00107,15)
V1: Removing PWL point (0.00108,15)
V1: Removing PWL point (0.00109,15)
V1: Removing PWL point (0.0011,15)
V1: Removing PWL point (0.00111,15)
V1: Removing PWL point (0.00112,15)
V1: Removing PWL point (0.00113,15)
V1: Removing PWL point (0.00114,15)
V1: Removing PWL point (0.00115,15)
V1: Removing PWL point (0.00116,15)
V1: Removing PWL point (0.00117,15)
V1: Removing PWL point (0.00118,15)
V1: Removing PWL point (0.00119,15)
V1: Removing PWL point (0.0012,15)
V1: Removing PWL point (0.00121,15)
V1: Removing PWL point (0.00122,15)
V1: Removing PWL point (0.00123,15)
V1: Removing PWL point (0.00124,15)
V1: Removing PWL point (0.00125,15)
V1: Removing PWL point (0.00126,15)
V1: Removing PWL point (0.00127,15)
V1: Removing PWL point (0.00128,15)
V1: Removing PWL point (0.00129,15)
V1: Removing PWL point (0.0013,15)
V1: Removing PWL point (0.00131,15)
V1: Removing PWL point (0.00132,15)
V1: Removing PWL point (0.00133,15)
V1: Removing PWL point (0.00134,15)
V1: Removing PWL point (0.00135,15)
V1: Removing PWL point (0.00136,15)
V1: Removing PWL point (0.00137,15)
V1: Removing PWL point (0.00138,15)
V1: Removing PWL point (0.00139,15)
V1: Removing PWL point (0.0014,15)
V1: Removing PWL point (0.00141,15)
V1: Removing PWL point (0.00142,15)
V1: Removing PWL point (0.00143,15)
V1: Removing PWL point (0.00144,15)
V1: Removing PWL point (0.00145,15)
V1: Removing PWL point (0.00146,15)
V1: Removing PWL point (0.00147,15)
V1: Removing PWL point (0.00148,15)
V1: Removing PWL point (0.00149,15)
V1: Removing PWL point (0.0015,15)
V1: Removing PWL point (0.00151,15)
V1: Removing PWL point (0.00152,15)
V1: Removing PWL point (0.00153,15)
V1: Removing PWL point (0.00154,15)
V1: Removing PWL point (0.00155,15)
V1: Removing PWL point (0.00156,15)
V1: Removing PWL point (0.00157,15)
V1: Removing PWL point (0.00158,15)
V1: Removing PWL point (0.00159,15)
V1: Removing PWL point (0.0016,15)
V1: Removing PWL point (0.00161,15)
V1: Removing PWL point (0.00162,15)
V1: Removing PWL point (0.00163,15)
V1: Removing PWL point (0.00164,15)
V1: Removing PWL point (0.00165,15)
V1: Removing PWL point (0.00166,15)
V1: Removing PWL point (0.00167,15)
V1: Removing PWL point (0.00168,15)
V1: Removing PWL point (0.00169,15)
V1: Removing PWL point (0.0017,15)
V1: Removing PWL point (0.00171,15)
V1: Removing PWL point (0.00172,15)
V1: Removing PWL point (0.00173,15)
V1: Removing PWL point (0.00174,15)
V1: Removing PWL point (0.00175,15)
V1: Removing PWL point (0.00176,15)
V1: Removing PWL point (0.00177,15)
V1: Removing PWL point (0.00178,15)
V1: Removing PWL point (0.00179,15)
V1: Removing PWL point (0.0018,15)
V1: Removing PWL point (0.00181,15)
V1: Removing PWL point (0.00182,15)
V1: Removing PWL point (0.00183,15)
V1: Removing PWL point (0.00184,15)
V1: Removing PWL point (0.00185,15)
V1: Removing PWL point (0.00186,15)
V1: Removing PWL point (0.00187,15)
V1: Removing PWL point (0.00188,15)
V1: Removing PWL point (0.00189,15)
V1: Removing PWL point (0.0019,15)
V1: Removing PWL point (0.00191,15)
V1: Removing PWL point (0.00192,15)
V1: Removing PWL point (0.00193,15)
V1: Removing PWL point (0.00194,15)
V1: Removing PWL point (0.00195,15)
V1: Removing PWL point (0.00196,15)
V1: Removing PWL point (0.00197,15)
V1: Removing PWL point (0.00198,15)
V1: Removing PWL point (0.00199,15)
V1: Removing PWL point (0.002,15)
V1: Removing PWL point (0.00201,15)
V1: Removing PWL point (0.00202,15)
V1: Removing PWL point (0.00203,15)
V1: Removing PWL point (0.00204,15)
V1: Removing PWL point (0.00205,15)
V1: Removing PWL point (0.00206,15)
V1: Removing PWL point (0.00207,15)
V1: Removing PWL point (0.00208,15)
V1: Removing PWL point (0.00209,15)
V1: Removing PWL point (0.0021,15)
V1: Removing PWL point (0.00211,15)
V1: Removing PWL point (0.00212,15)
V1: Removing PWL point (0.00213,15)
V1: Removing PWL point (0.00214,15)
V1: Removing PWL point (0.00215,15)
V1: Removing PWL point (0.00216,15)
V1: Removing PWL point (0.00217,15)
V1: Removing PWL point (0.00218,15)
V1: Removing PWL point (0.00219,15)
V1: Removing PWL point (0.0022,15)
V1: Removing PWL point (0.00221,15)
V1: Removing PWL point (0.00222,15)
V1: Removing PWL point (0.00223,15)
V1: Removing PWL point (0.00224,15)
V1: Removing PWL point (0.00225,15)
V1: Removing PWL point (0.00226,15)
V1: Removing PWL point (0.00227,15)
V1: Removing PWL point (0.00228,15)
V1: Removing PWL point (0.00229,15)
V1: Removing PWL point (0.0023,15)
V1: Removing PWL point (0.00231,15)
V1: Removing PWL point (0.00232,15)
V1: Removing PWL point (0.00233,15)
V1: Removing PWL point (0.00234,15)
V1: Removing PWL point (0.00235,15)
V1: Removing PWL point (0.00236,15)
V1: Removing PWL point (0.00237,15)
V1: Removing PWL point (0.00238,15)
V1: Removing PWL point (0.00239,15)
V1: Removing PWL point (0.0024,15)
V1: Removing PWL point (0.00241,15)
V1: Removing PWL point (0.00242,15)
V1: Removing PWL point (0.00243,15)
V1: Removing PWL point (0.00244,15)
V1: Removing PWL point (0.00245,15)
V1: Removing PWL point (0.00246,15)
V1: Removing PWL point (0.00247,15)
V1: Removing PWL point (0.00248,15)
V1: Removing PWL point (0.00249,15)
V1: Removing PWL point (0.0025,15)
V1: Removing PWL point (0.00251,15)
V1: Removing PWL point (0.00252,15)
V1: Removing PWL point (0.00253,15)
V1: Removing PWL point (0.00254,15)
V1: Removing PWL point (0.00255,15)
V1: Removing PWL point (0.00256,15)
V1: Removing PWL point (0.00257,15)
V1: Removing PWL point (0.00258,15)
V1: Removing PWL point (0.00259,15)
V1: Removing PWL point (0.0026,15)
V1: Removing PWL point (0.00261,15)
V1: Removing PWL point (0.00262,15)
V1: Removing PWL point (0.00263,15)
V1: Removing PWL point (0.00264,15)
V1: Removing PWL point (0.00265,15)
V1: Removing PWL point (0.00266,15)
V1: Removing PWL point (0.00267,15)
V1: Removing PWL point (0.00268,15)
V1: Removing PWL point (0.00269,15)
[...]
Vi1: Removing PWL point (0.00144,15)
Vi1: Removing PWL point (0.00145,15)
Vi1: Removing PWL point (0.00146,15)
Vi1: Removing PWL point (0.00147,15)
Vi1: Removing PWL point (0.00148,15)
Vi1: Removing PWL point (0.00149,15)
Vi1: Removing PWL point (0.0015,15)
Vi1: Removing PWL point (0.00151,15)
Vi1: Removing PWL point (0.00152,15)
Vi1: Removing PWL point (0.00153,15)
Vi1: Removing PWL point (0.00154,15)
Vi1: Removing PWL point (0.00155,15)
Vi1: Removing PWL point (0.00156,15)
Vi1: Removing PWL point (0.00157,15)
Vi1: Removing PWL point (0.00158,15)
Vi1: Removing PWL point (0.00159,15)
Vi1: Removing PWL point (0.0016,15)
Vi1: Removing PWL point (0.00161,15)
Vi1: Removing PWL point (0.00162,15)
Vi1: Removing PWL point (0.00163,15)
Vi1: Removing PWL point (0.00164,15)
Vi1: Removing PWL point (0.00165,15)
Vi1: Removing PWL point (0.00166,15)
Vi1: Removing PWL point (0.00167,15)
Vi1: Removing PWL point (0.00168,15)
Vi1: Removing PWL point (0.00169,15)
Vi1: Removing PWL point (0.0017,15)
Vi1: Removing PWL point (0.00171,15)
Vi1: Removing PWL point (0.00172,15)
Vi1: Removing PWL point (0.00173,15)
Vi1: Removing PWL point (0.00174,15)
Vi1: Removing PWL point (0.00175,15)
Vi1: Removing PWL point (0.00176,15)
Vi1: Removing PWL point (0.00177,15)
Vi1: Removing PWL point (0.00178,15)
Vi1: Removing PWL point (0.00179,15)
Vi1: Removing PWL point (0.0018,15)
Vi1: Removing PWL point (0.00181,15)
Vi1: Removing PWL point (0.00182,15)
Vi1: Removing PWL point (0.00183,15)
Vi1: Removing PWL point (0.00184,15)
Vi1: Removing PWL point (0.00185,15)
Vi1: Removing PWL point (0.00186,15)
Vi1: Removing PWL point (0.00187,15)
Vi1: Removing PWL point (0.00188,15)
Vi1: Removing PWL point (0.00189,15)
Vi1: Removing PWL point (0.0019,15)
Vi1: Removing PWL point (0.00191,15)
Vi1: Removing PWL point (0.00192,15)
Vi1: Removing PWL point (0.00193,15)
Vi1: Removing PWL point (0.00194,15)
Vi1: Removing PWL point (0.00195,15)
Vi1: Removing PWL point (0.00196,15)
Vi1: Removing PWL point (0.00197,15)
Vi1: Removing PWL point (0.00198,15)
Vi1: Removing PWL point (0.00199,15)
Vi1: Removing PWL point (0.002,15)
Vi1: Removing PWL point (0.00201,15)
Vi1: Removing PWL point (0.00202,15)
Vi1: Removing PWL point (0.00203,15)
Vi1: Removing PWL point (0.00204,15)
Vi1: Removing PWL point (0.00205,15)
Vi1: Removing PWL point (0.00206,15)
Vi1: Removing PWL point (0.00207,15)
Vi1: Removing PWL point (0.00208,15)
Vi1: Removing PWL point (0.00209,15)
Vi1: Removing PWL point (0.0021,15)
Vi1: Removing PWL point (0.00211,15)
Vi1: Removing PWL point (0.00212,15)
Vi1: Removing PWL point (0.00213,15)
Vi1: Removing PWL point (0.00214,15)
Vi1: Removing PWL point (0.00215,15)
Vi1: Removing PWL point (0.00216,15)
Vi1: Removing PWL point (0.00217,15)
Vi1: Removing PWL point (0.00218,15)
Vi1: Removing PWL point (0.00219,15)
Vi1: Removing PWL point (0.0022,15)
Vi1: Removing PWL point (0.00221,15)
Vi1: Removing PWL point (0.00222,15)
Vi1: Removing PWL point (0.00223,15)
Vi1: Removing PWL point (0.00224,15)
Vi1: Removing PWL point (0.00225,15)
Vi1: Removing PWL point (0.00226,15)
Vi1: Removing PWL point (0.00227,15)
Vi1: Removing PWL point (0.00228,15)
Vi1: Removing PWL point (0.00229,15)
Vi1: Removing PWL point (0.0023,15)
Vi1: Removing PWL point (0.00231,15)
Vi1: Removing PWL point (0.00232,15)
Vi1: Removing PWL point (0.00233,15)
Vi1: Removing PWL point (0.00234,15)
Vi1: Removing PWL point (0.00235,15)
Vi1: Removing PWL point (0.00236,15)
Vi1: Removing PWL point (0.00237,15)
Vi1: Removing PWL point (0.00238,15)
Vi1: Removing PWL point (0.00239,15)
Vi1: Removing PWL point (0.0024,15)
Vi1: Removing PWL point (0.00241,15)
Vi1: Removing PWL point (0.00242,15)
Vi1: Removing PWL point (0.00243,15)
Vi1: Removing PWL point (0.00244,15)
Vi1: Removing PWL point (0.00245,15)
Vi1: Removing PWL point (0.00246,15)
Vi1: Removing PWL point (0.00247,15)
Vi1: Removing PWL point (0.00248,15)
Vi1: Removing PWL point (0.00249,15)
Vi1: Removing PWL point (0.0025,15)
Vi1: Removing PWL point (0.00251,15)
Vi1: Removing PWL point (0.00252,15)
Vi1: Removing PWL point (0.00253,15)
Vi1: Removing PWL point (0.00254,15)
Vi1: Removing PWL point (0.00255,15)
Vi1: Removing PWL point (0.00256,15)
Vi1: Removing PWL point (0.00257,15)
Vi1: Removing PWL point (0.00258,15)
Vi1: Removing PWL point (0.00259,15)
Vi1: Removing PWL point (0.0026,15)
Vi1: Removing PWL point (0.00261,15)
Vi1: Removing PWL point (0.00262,15)
Vi1: Removing PWL point (0.00263,15)
Vi1: Removing PWL point (0.00264,15)
Vi1: Removing PWL point (0.00265,15)
Vi1: Removing PWL point (0.00266,15)
Vi1: Removing PWL point (0.00267,15)
Vi1: Removing PWL point (0.00268,15)
Vi1: Removing PWL point (0.00269,15)
Vi1: Removing PWL point (0.0027,15)
Vi1: Removing PWL point (0.00271,15)
Vi1: Removing PWL point (0.00272,15)
Vi1: Removing PWL point (0.00273,15)
Vi1: Removing PWL point (0.00274,15)
Vi1: Removing PWL point (0.00275,15)
Vi1: Removing PWL point (0.00276,15)
Vi1: Removing PWL point (0.00277,15)
Vi1: Removing PWL point (0.00278,15)
Vi1: Removing PWL point (0.00279,15)
Vi1: Removing PWL point (0.0028,15)
Vi1: Removing PWL point (0.00281,15)
Vi1: Removing PWL point (0.00282,15)
Vi1: Removing PWL point (0.00283,15)
Vi1: Removing PWL point (0.00284,15)
Vi1: Removing PWL point (0.00285,15)
Vi1: Removing PWL point (0.00286,15)
Vi1: Removing PWL point (0.00287,15)
Vi1: Removing PWL point (0.00288,15)
Vi1: Removing PWL point (0.00289,15)
Vi1: Removing PWL point (0.0029,15)
Vi1: Removing PWL point (0.00291,15)
Vi1: Removing PWL point (0.00292,15)
Vi1: Removing PWL point (0.00293,15)
Vi1: Removing PWL point (0.00294,15)
Vi1: Removing PWL point (0.00295,15)
Vi1: Removing PWL point (0.00296,15)
Vi1: Removing PWL point (0.00297,15)
Vi1: Removing PWL point (0.00298,15)
Vi1: Removing PWL point (0.00299,15)
Vi1: Removing PWL point (0.003,15)
Vi1: Removing PWL point (0.00301,15)
Vi1: Removing PWL point (0.00302,15)
Vi1: Removing PWL point (0.00303,15)
Vi1: Removing PWL point (0.00304,15)
Vi1: Removing PWL point (0.00305,15)
Vi1: Removing PWL point (0.00306,15)
Vi1: Removing PWL point (0.00307,15)
Vi1: Removing PWL point (0.00308,15)
Vi1: Removing PWL point (0.00309,15)
Vi1: Removing PWL point (0.0031,15)
Vi1: Removing PWL point (0.00311,15)
Vi1: Removing PWL point (0.00312,15)
Vi1: Removing PWL point (0.00313,15)
Vi1: Removing PWL point (0.00314,15)
Vi1: Removing PWL point (0.00315,15)
Vi1: Removing PWL point (0.00316,15)
Vi1: Removing PWL point (0.00317,15)
Vi1: Removing PWL point (0.00318,15)
Vi1: Removing PWL point (0.00319,15)
Vi1: Removing PWL point (0.0032,15)
Vi1: Removing PWL point (0.00321,15)
Vi1: Removing PWL point (0.00322,15)
Vi1: Removing PWL point (0.00323,15)
Vi1: Removing PWL point (0.00324,15)
Vi1: Removing PWL point (0.00325,15)
Vi1: Removing PWL point (0.00326,15)
Vi1: Removing PWL point (0.00327,15)
Vi1: Removing PWL point (0.00328,15)
Vi1: Removing PWL point (0.00329,15)
Vi1: Removing PWL point (0.0033,15)
Vi1: Removing PWL point (0.00331,15)
Vi1: Removing PWL point (0.00332,15)
Vi1: Removing PWL point (0.00333,15)
Vi1: Removing PWL point (0.00334,15)
Vi1: Removing PWL point (0.00335,15)
Vi1: Removing PWL point (0.00336,15)
Vi1: Removing PWL point (0.00337,15)
Vi1: Removing PWL point (0.00338,15)
Vi1: Removing PWL point (0.00339,15)
Vi1: Removing PWL point (0.0034,15)
Vi1: Removing PWL point (0.00341,15)
Vi1: Removing PWL point (0.00342,15)
Vi1: Removing PWL point (0.00343,15)
Vi1: Removing PWL point (0.00344,15)
Vi1: Removing PWL point (0.00345,15)
Vi1: Removing PWL point (0.00346,15)
Vi1: Removing PWL point (0.00347,15)
Vi1: Removing PWL point (0.00348,15)
Vi1: Removing PWL point (0.00349,15)
Vi1: Removing PWL point (0.0035,15)
Vi1: Removing PWL point (0.00351,15)
Vi1: Removing PWL point (0.00352,15)
Vi1: Removing PWL point (0.00353,15)
Vi1: Removing PWL point (0.00354,15)
Vi1: Removing PWL point (0.00355,15)
Vi1: Removing PWL point (0.00356,15)
Vi1: Removing PWL point (0.00357,15)
Vi1: Removing PWL point (0.00358,15)
Vi1: Removing PWL point (0.00359,15)
Vi1: Removing PWL point (0.0036,15)
Vi1: Removing PWL point (0.00361,15)
Vi1: Removing PWL point (0.00362,15)
Vi1: Removing PWL point (0.00363,15)
Vi1: Removing PWL point (0.00364,15)
Vi1: Removing PWL point (0.00365,15)
Vi1: Removing PWL point (0.00366,15)
Vi1: Removing PWL point (0.00367,15)
Vi1: Removing PWL point (0.00368,15)
Vi1: Removing PWL point (0.00369,15)
Vi1: Removing PWL point (0.0037,15)
Vi1: Removing PWL point (0.00371,15)
Vi1: Removing PWL point (0.00372,15)
Vi1: Removing PWL point (0.00373,15)
Vi1: Removing PWL point (0.00374,15)
Vi1: Removing PWL point (0.00375,15)
Vi1: Removing PWL point (0.00376,15)
Vi1: Removing PWL point (0.00377,15)
Vi1: Removing PWL point (0.00378,15)
Vi1: Removing PWL point (0.00379,15)
Vi1: Removing PWL point (0.0038,15)
Vi1: Removing PWL point (0.00381,15)
Vi1: Removing PWL point (0.00382,15)
Vi1: Removing PWL point (0.00383,15)
Vi1: Removing PWL point (0.00384,15)
Vi1: Removing PWL point (0.00385,15)
Vi1: Removing PWL point (0.00386,15)
Vi1: Removing PWL point (0.00387,15)
Vi1: Removing PWL point (0.00388,15)
Vi1: Removing PWL point (0.00389,15)
Vi1: Removing PWL point (0.0039,15)
Vi1: Removing PWL point (0.00391,15)
Vi1: Removing PWL point (0.00392,15)
Vi1: Removing PWL point (0.00393,15)
Vi1: Removing PWL point (0.00394,15)
Vi1: Removing PWL point (0.00395,15)
Vi1: Removing PWL point (0.00396,15)
Vi1: Removing PWL point (0.00397,15)
Vi1: Removing PWL point (0.00398,15)
Vi1: Removing PWL point (0.00399,15)
Vi1: Removing PWL point (0.004,15)
Vi1: Removing PWL point (0.00401,15)
Vi1: Removing PWL point (0.00402,15)
Vi1: Removing PWL point (0.00403,15)
Vi1: Removing PWL point (0.00404,15)
Vi1: Removing PWL point (0.00405,15)
Vi1: Removing PWL point (0.00406,15)
Vi1: Removing PWL point (0.00407,15)
Vi1: Removing PWL point (0.00408,15)
Vi1: Removing PWL point (0.00409,15)
Vi1: Removing PWL point (0.0041,15)
Vi1: Removing PWL point (0.00411,15)
Vi1: Removing PWL point (0.00412,15)
Vi1: Removing PWL point (0.00413,15)
Vi1: Removing PWL point (0.00414,15)
Vi1: Removing PWL point (0.00415,15)
Vi1: Removing PWL point (0.00416,15)
Vi1: Removing PWL point (0.00417,15)
Vi1: Removing PWL point (0.00418,15)
Vi1: Removing PWL point (0.00419,15)
Vi1: Removing PWL point (0.0042,15)
Vi1: Removing PWL point (0.00421,15)
Vi1: Removing PWL point (0.00422,15)
Vi1: Removing PWL point (0.00423,15)
Vi1: Removing PWL point (0.00424,15)
Vi1: Removing PWL point (0.00425,15)
Vi1: Removing PWL point (0.00426,15)
Vi1: Removing PWL point (0.00427,15)
Vi1: Removing PWL point (0.00428,15)
Vi1: Removing PWL point (0.00429,15)
Vi1: Removing PWL point (0.0043,15)
Vi1: Removing PWL point (0.00431,15)
Vi1: Removing PWL point (0.00432,15)
Vi1: Removing PWL point (0.00433,15)
Vi1: Removing PWL point (0.00434,15)
Vi1: Removing PWL point (0.00435,15)
Vi1: Removing PWL point (0.00436,15)
Vi1: Removing PWL point (0.00437,15)
Vi1: Removing PWL point (0.00438,15)
Vi1: Removing PWL point (0.00439,15)
Vi1: Removing PWL point (0.0044,15)
Vi1: Removing PWL point (0.00441,15)
Vi1: Removing PWL point (0.00442,15)
Vi1: Removing PWL point (0.00443,15)
Vi1: Removing PWL point (0.00444,15)
Vi1: Removing PWL point (0.00445,15)
Vi1: Removing PWL point (0.00446,15)
Vi1: Removing PWL point (0.00447,15)
Vi1: Removing PWL point (0.00448,15)
Vi1: Removing PWL point (0.00449,15)
Vi1: Removing PWL point (0.0045,15)
Vi1: Removing PWL point (0.00451,15)
Vi1: Removing PWL point (0.00452,15)
Vi1: Removing PWL point (0.00453,15)
Vi1: Removing PWL point (0.00454,15)
Vi1: Removing PWL point (0.00455,15)
Vi1: Removing PWL point (0.00456,15)
Vi1: Removing PWL point (0.00457,15)
Vi1: Removing PWL point (0.00458,15)
Vi1: Removing PWL point (0.00459,15)
Vi1: Removing PWL point (0.0046,15)
Vi1: Removing PWL point (0.00461,15)
Vi1: Removing PWL point (0.00462,15)
Vi1: Removing PWL point (0.00463,15)
Vi1: Removing PWL point (0.00464,15)
Vi1: Removing PWL point (0.00465,15)
Vi1: Removing PWL point (0.00466,15)
Vi1: Removing PWL point (0.00467,15)
Vi1: Removing PWL point (0.00468,15)
Vi1: Removing PWL point (0.00469,15)
Vi1: Removing PWL point (0.0047,15)
Vi1: Removing PWL point (0.00471,15)
Vi1: Removing PWL point (0.00472,15)
Vi1: Removing PWL point (0.00473,15)
Vi1: Removing PWL point (0.00474,15)
Vi1: Removing PWL point (0.00475,15)
Vi1: Removing PWL point (0.00476,15)
Vi1: Removing PWL point (0.00477,15)
Vi1: Removing PWL point (0.00478,15)
Vi1: Removing PWL point (0.00479,15)
Vi1: Removing PWL point (0.0048,15)
Vi1: Removing PWL point (0.00481,15)
Vi1: Removing PWL point (0.00482,15)
Vi1: Removing PWL point (0.00483,15)
Vi1: Removing PWL point (0.00484,15)
Vi1: Removing PWL point (0.00485,15)
Vi1: Removing PWL point (0.00486,15)
Vi1: Removing PWL point (0.00487,15)
Vi1: Removing PWL point (0.00488,15)
Vi1: Removing PWL point (0.00489,15)
Vi1: Removing PWL point (0.0049,15)
Vi1: Removing PWL point (0.00491,15)
Vi1: Removing PWL point (0.00492,15)
Vi1: Removing PWL point (0.00493,15)
Vi1: Removing PWL point (0.00494,15)
Vi1: Removing PWL point (0.00495,15)
Vi1: Removing PWL point (0.00496,15)
Vi1: Removing PWL point (0.00497,15)
Vi1: Removing PWL point (0.00498,15)
Vi1: Removing PWL point (0.00499,15)
Vi1: Removing PWL point (0.005,15)
Vi1: Removing PWL point (0.00501,15)
Vi1: Removing PWL point (0.00502,15)
Vi1: Removing PWL point (0.00503,15)
Vi1: Removing PWL point (0.00504,15)
Vi1: Removing PWL point (0.00505,15)
Vi1: Removing PWL point (0.00506,15)
Vi1: Removing PWL point (0.00507,15)
Vi1: Removing PWL point (0.00508,15)
Vi1: Removing PWL point (0.00509,15)
Vi1: Removing PWL point (0.0051,15)
Vi1: Removing PWL point (0.00511,15)
Vi1: Removing PWL point (0.00512,15)
Vi1: Removing PWL point (0.00513,15)
Vi1: Removing PWL point (0.00514,15)
Vi1: Removing PWL point (0.00515,15)
Vi1: Removing PWL point (0.00516,15)
Vi1: Removing PWL point (0.00517,15)
Vi1: Removing PWL point (0.00518,15)
Vi1: Removing PWL point (0.00519,15)
Vi1: Removing PWL point (0.0052,15)
Vi1: Removing PWL point (0.00521,15)
Vi1: Removing PWL point (0.00522,15)
Vi1: Removing PWL point (0.00523,15)
Vi1: Removing PWL point (0.00524,15)
Vi1: Removing PWL point (0.00525,15)
Vi1: Removing PWL point (0.00526,15)
Vi1: Removing PWL point (0.00527,15)
Vi1: Removing PWL point (0.00528,15)
Vi1: Removing PWL point (0.00529,15)
Vi1: Removing PWL point (0.0053,15)
Vi1: Removing PWL point (0.00531,15)
Vi1: Removing PWL point (0.00532,15)
Vi1: Removing PWL point (0.00533,15)
Vi1: Removing PWL point (0.00534,15)
Vi1: Removing PWL point (0.00535,15)
Vi1: Removing PWL point (0.00536,15)
Vi1: Removing PWL point (0.00537,15)
Vi1: Removing PWL point (0.00538,15)
Vi1: Removing PWL point (0.00539,15)
Vi1: Removing PWL point (0.0054,15)
Vi1: Removing PWL point (0.00541,15)
Vi1: Removing PWL point (0.00542,15)
Vi1: Removing PWL point (0.00543,15)
Vi1: Removing PWL point (0.00544,15)
Vi1: Removing PWL point (0.00545,15)
Vi1: Removing PWL point (0.00546,15)
Vi1: Removing PWL point (0.00547,15)
Vi1: Removing PWL point (0.00548,15)
Vi1: Removing PWL point (0.00549,15)
Vi1: Removing PWL point (0.0055,15)
Vi1: Removing PWL point (0.00551,15)
Vi1: Removing PWL point (0.00552,15)
Vi1: Removing PWL point (0.00553,15)
Vi1: Removing PWL point (0.00554,15)
Vi1: Removing PWL point (0.00555,15)
Vi1: Removing PWL point (0.00556,15)
Vi1: Removing PWL point (0.00557,15)
Vi1: Removing PWL point (0.00558,15)
Vi1: Removing PWL point (0.00559,15)
Vi1: Removing PWL point (0.0056,15)
Vi1: Removing PWL point (0.00561,15)
Vi1: Removing PWL point (0.00562,15)
Vi1: Removing PWL point (0.00563,15)
Vi1: Removing PWL point (0.00564,15)
Vi1: Removing PWL point (0.00565,15)
Vi1: Removing PWL point (0.00566,15)
Vi1: Removing PWL point (0.00567,15)
Vi1: Removing PWL point (0.00568,15)
Vi1: Removing PWL point (0.00569,15)
Vi1: Removing PWL point (0.0057,15)
Vi1: Removing PWL point (0.00571,15)
Vi1: Removing PWL point (0.00572,15)
Vi1: Removing PWL point (0.00573,15)
Vi1: Removing PWL point (0.00574,15)
Vi1: Removing PWL point (0.00575,15)
Vi1: Removing PWL point (0.00576,15)
Vi1: Removing PWL point (0.00577,15)
Vi1: Removing PWL point (0.00578,15)
Vi1: Removing PWL point (0.00579,15)
Vi1: Removing PWL point (0.0058,15)
Vi1: Removing PWL point (0.00581,15)
Vi1: Removing PWL point (0.00582,15)
Vi1: Removing PWL point (0.00583,15)
Vi1: Removing PWL point (0.00584,15)
Vi1: Removing PWL point (0.00585,15)
Vi1: Removing PWL point (0.00586,15)
Vi1: Removing PWL point (0.00587,15)
Vi1: Removing PWL point (0.00588,15)
Vi1: Removing PWL point (0.00589,15)
Vi1: Removing PWL point (0.0059,15)
Vi1: Removing PWL point (0.00591,15)
Vi1: Removing PWL point (0.00592,15)
Vi1: Removing PWL point (0.00593,15)
Vi1: Removing PWL point (0.00594,15)
Vi1: Removing PWL point (0.00595,15)
Vi1: Removing PWL point (0.00596,15)
Vi1: Removing PWL point (0.00597,15)
Vi1: Removing PWL point (0.00598,15)
Vi1: Removing PWL point (0.00599,15)
Vi1: Removing PWL point (0.006,15)
Vi1: Removing PWL point (0.00601,15)
Vi1: Removing PWL point (0.00602,15)
Vi1: Removing PWL point (0.00603,15)
Vi1: Removing PWL point (0.00604,15)
Vi1: Removing PWL point (0.00605,15)
Vi1: Removing PWL point (0.00606,15)
Vi1: Removing PWL point (0.00607,15)
Vi1: Removing PWL point (0.00608,15)
Vi1: Removing PWL point (0.00609,15)
Vi1: Removing PWL point (0.0061,15)
Vi1: Removing PWL point (0.00611,15)
Vi1: Removing PWL point (0.00612,15)
Vi1: Removing PWL point (0.00613,15)
Vi1: Removing PWL point (0.00614,15)
Vi1: Removing PWL point (0.00615,15)
Vi1: Removing PWL point (0.00616,15)
Vi1: Removing PWL point (0.00617,15)
Vi1: Removing PWL point (0.00618,15)
Vi1: Removing PWL point (0.00619,15)
Vi1: Removing PWL point (0.0062,15)
Vi1: Removing PWL point (0.00621,15)
Vi1: Removing PWL point (0.00622,15)
Vi1: Removing PWL point (0.00623,15)
Vi1: Removing PWL point (0.00624,15)
Vi1: Removing PWL point (0.00625,15)
Vi1: Removing PWL point (0.00626,15)
Vi1: Removing PWL point (0.00627,15)
Vi1: Removing PWL point (0.00628,15)
Vi1: Removing PWL point (0.00629,15)
Vi1: Removing PWL point (0.0063,15)
Vi1: Removing PWL point (0.00631,15)
Vi1: Removing PWL point (0.00632,15)
Vi1: Removing PWL point (0.00633,15)
Vi1: Removing PWL point (0.00634,15)
Vi1: Removing PWL point (0.00635,15)
Vi1: Removing PWL point (0.00636,15)
Vi1: Removing PWL point (0.00637,15)
Vi1: Removing PWL point (0.00638,15)
Vi1: Removing PWL point (0.00639,15)
Vi1: Removing PWL point (0.0064,15)
Vi1: Removing PWL point (0.00641,15)
Vi1: Removing PWL point (0.00642,15)
Vi1: Removing PWL point (0.00643,15)
Vi1: Removing PWL point (0.00644,15)
Vi1: Removing PWL point (0.00645,15)
Vi1: Removing PWL point (0.00646,15)
Vi1: Removing PWL point (0.00647,15)
Vi1: Removing PWL point (0.00648,15)
Vi1: Removing PWL point (0.00649,15)
Vi1: Removing PWL point (0.0065,15)
Vi1: Removing PWL point (0.00651,15)
Vi1: Removing PWL point (0.00652,15)
Vi1: Removing PWL point (0.00653,15)
Vi1: Removing PWL point (0.00654,15)
Vi1: Removing PWL point (0.00655,15)
Vi1: Removing PWL point (0.00656,15)
Vi1: Removing PWL point (0.00657,15)
Vi1: Removing PWL point (0.00658,15)
Vi1: Removing PWL point (0.00659,15)
Vi1: Removing PWL point (0.0066,15)
Vi1: Removing PWL point (0.00661,15)
Vi1: Removing PWL point (0.00662,15)
Vi1: Removing PWL point (0.00663,15)
Vi1: Removing PWL point (0.00664,15)
Vi1: Removing PWL point (0.00665,15)
WARNING: Node U1:_3:GATE is floating.
WARNING: Node U2:_3:GATE is floating.
WARNING: Node U3:_3:GATE is floating.
WARNING: Node U4:_3:GATE is floating.
WARNING: Node U5:_3:GATE is floating.
WARNING: Node U6:_3:GATE is floating.

Direct Newton iteration for .op point succeeded.

Date: Thu Dec 12 19:00:41 2019
Total elapsed time: 98.418 seconds.

tnom = 27
temp = 27
method = modified trap
totiter = 4264659
traniter = 4264651
tranpoints = 1567177
accept = 1335955
rejected = 231222
matrix size = 50
fillins = 17
solver = Normal
Thread vector: 42.9/22.6[3] 2.7/3.0[1] 4.7/2.7[3] 0.2/1.6[1]  2592/500
Matrix Compiler1: 3.52 KB object code size  1.1/0.8/[0.3]
Matrix Compiler2: 4.11 KB object code size  0.5/0.8/[0.3]

