Circuit: * Model using LTspice Version 4 or later

Fatal Error: No analysis request found.
