Circuit: * C:\Users\user\Desktop\PowerLab\OutputCapacitanceAnalysis\CircuitAndScript\Cicuit2.asc

Direct Newton iteration for .op point succeeded.
Heightened Def Con from 0.012 to 0.012

Date: Thu Jan 23 00:26:06 2020
Total elapsed time: 1.658 seconds.

tnom = 27
temp = 27
method = modified trap
totiter = 97660
traniter = 97656
tranpoints = 44108
accept = 42833
rejected = 1276
matrix size = 32
fillins = 26
solver = Normal
Matrix Compiler1: 2.84 KB object code size  0.5/0.3/[0.2]
Matrix Compiler2: 2.85 KB object code size  0.2/0.4/[0.2]

