Circuit: * C:\Users\user\Desktop\PowerLab\OutputCapacitanceAnalysis\CircuitAndScript\Cicuit2.asc

Direct Newton iteration for .op point succeeded.

Date: Thu Jan 23 00:34:52 2020
Total elapsed time: 29.451 seconds.

tnom = 27
temp = 27
method = modified trap
totiter = 3251226
traniter = 3251222
tranpoints = 1200747
accept = 1200598
rejected = 149
matrix size = 32
fillins = 26
solver = Normal
Matrix Compiler1: 2.92 KB object code size  0.6/0.3/[0.2]
Matrix Compiler2: 2.82 KB object code size  0.2/0.4/[0.2]

